//*Spectre Model Format
simulator lang=spectre  insensitive=yes

// *
// * no part of this file can be released without the consent of smic.
// *
// ************************************************************************************************
// *    smic 0.11um mixed signal 1p8m(1p7m, 1p6m, 1p5m) 1.2v/3.3v spice model (for Spectre only)  *
// ************************************************************************************************
// *
// * release version    : 1.24
// *
// * release date       : 1/16/2015
// *
// * simulation tool    : Cadence spectre V10.1.1
// *
// * model type         :
// *   junction diode   : spectre level 1
// *
// * junction diode     :
// *        *------------------------------------------*
// *        | junction diode type|    1.2v   |   3.3v  |
// *        |==========================================|
// *        |      n+/pwell      |  ndio12   | ndio33  |
// *        |------------------------------------------|
// *        |      p+/nwell      |  pdio12   | pdio33  |
// *        |------------------------------------------|
// *        |   native n+/pwell  |  ntdio12  | ntdio33 |
// *        |------------------------------------------|
// *        |      nwell/psub    |        nwdio        |
// *        *------------------------------------------*
// *        |     hvt n+/pwell   | nhvtdio12 |   na    |
// *        |------------------------------------------|
// *        |     hvt p+/nwell   | phvtdio12 |   na    |
// *        *------------------------------------------*
// *        |     lvt n+/pwell   | nlvtdio12 |   na    |
// *        |------------------------------------------|
// *        |     lvt p+/nwell   | plvtdio12 |   na    |
// *        *------------------------------------------*
// *        |      BPW/DNWELL    |    (Na)   | rwdio33 |
// *        *------------------------------------------*
// *        |     DNWELL/PWELL   |    (Na)   | dnwdio33|
// *        *------------------------------------------*
//*         |     nwell/psub     |   parasitic_nwd     | 
//*         |------------------------------------------|
//*         |    rwell/dnwell    |   parasitic_rwd     |
//*         |------------------------------------------|
//*         |     dnwell/psub    |   parasitic_dnwd    |  
//*         *------------------------------------------*
// *
// * the valid temperature range is from -40c to 125c
// *
// ***********************************************************************************
// *                            1.2v n+/pwell diode model                            *
// ***********************************************************************************
// *
model ndio12 diode
+level = 1 is = 1.06e-06+djs_ndio12 allow_scaling = yes dskip = no imax=1e20 isw = 1.00e-15+djsw_ndio12 
+n = 1.083+dn_ndio12 ns = 1.083+dn_ndio12 rs = 1.00e-10 ik = 1.00e+21 minr=1e-6
+bv = 10.25 ibv = 277.8 
+trs = 1.00e-05 eg = 1.16 tnom = 25.0 
+xti = 3.0 tlev = 1 tlevc = 1 
+cjo = 1.315e-03+dcj_ndio12 
+cjsw = 1.04e-10+dcjsw_ndio12 
+mj = 0.458 vj = 0.791 
+mjsw = 0.593 vjsw = 0.955 
+cta = 7.59e-04 ctp = 5.85e-04 pta = 1.12e-03 
+ptp = 9.24e-04 fc = 0 
+area = 3.60e-09 perim = 2.4e-04 
// *
// ***********************************************************************************
// *                            1.2v p+/nwell diode model                            *
// ***********************************************************************************
// *
model pdio12 diode
+level = 1 is = 2.30e-07+djs_pdio12 allow_scaling = yes dskip = no imax=1e20 isw = 1.31e-13+djsw_pdio12 
+n = 1.0188+dn_pdio12 ns = 1.0188+dn_pdio12 rs = 1.00e-10 ik = 1.00e+21 minr=1e-6
+bv = 10.1 ibv = 277.8 
+trs = 1.09e-03 eg = 1.16 tnom = 25.0 
+xti = 3.0 tlev = 1 tlevc = 1 
+cjo = 1.22e-03+dcj_pdio12 
+cjsw = 7.53e-11+dcjsw_pdio12 
+mj = 0.431 vj = 0.785 
+mjsw = 0.346 vjsw = 0.472 
+cta = 8.72e-04 ctp = 7.55e-04 pta = 0.0012231
+ptp = 3.60e-04 fc = 0 
+area = 3.60e-09 perim = 2.4e-04 
// *
// ***********************************************************************************
// *                            3.3v n+/pwell diode model                            *
// ***********************************************************************************
// *
model ndio33 diode
+level = 1 is = 1.50e-07+djs_ndio33 allow_scaling = yes dskip = no imax=1e20 isw = 1.00e-15+djsw_ndio33 
+n = 1.012+dn_ndio33 ns = 1.012+dn_ndio33 rs = 1.00e-10 ik = 1.00e+21 minr=1e-6
+bv = 11.36 ibv = 277.8 
+trs = 1.11e-03 eg = 1.16 tnom = 25.0 
+xti = 3.0 tlev = 1 tlevc = 1 
+cjo = 9.00e-04+dcj_ndio33 mj = 0.267 vj = 0.653 
+cjsw = 1.27e-10+dcjsw_ndio33 mjsw = 0.193 vjsw = 0.996 
+pta = 1.7e-03 ptp = 1.42e-03 
+cta = 9.50e-04 ctp = 6.17e-04 fc = 0 
+area = 3.60e-09 perim = 2.4e-04 
// *
// ***********************************************************************************
// *                            3.3v p+/nwell diode model                            *
// ***********************************************************************************
// *
model pdio33 diode
+level = 1 is = 1.82e-07+djs_pdio33 allow_scaling = yes dskip = no imax=1e20 isw = 1.00e-15+djsw_pdio33 
+n = 1.0187+dn_pdio33 ns = 1.0187+dn_pdio33 rs = 1.00e-10 ik = 1.00e+21 minr=1e-6
+bv = 9.24 ibv = 277.8 
+trs = 9.86e-04 eg = 1.16 tnom = 25.0 
+xti = 3.0 tlev = 1 tlevc = 1 
+cjo = 1.22e-03+dcj_pdio33 mj = 0.378 vj = 0.814 
+cjsw = 4.56e-11+dcjsw_pdio33 mjsw = 0.304 vjsw = 0.923 
+pta = 1.50e-03 ptp = 7.30e-04 
+cta = 7.80e-04 ctp = 9.11e-04 fc = 0 
+area = 3.60e-09 perim = 2.40e-04 
// *
// *
// ***********************************************************************************
// *                       1.2v native n+/pwell diode model                          *
// ***********************************************************************************
// *
model ntdio12 diode
+level = 1 is = 4.52e-06+djs_ntdio12 allow_scaling = yes dskip = no imax=1e20 isw = 7.15e-15+djsw_ntdio12 
+n = 1.06+dn_ntdio12 ns = 1.06+dn_ntdio12 rs = 1.00e-10 ik = 1.00e+21 minr=1e-6
+bv = 17.25 ibv = 277.8 
+trs = 2.10e-03 eg = 1.16 tnom = 25.0 
+xti = 3.0 tlev = 1 tlevc = 1 
+cjo = 1.58e-04+dcj_ntdio12 
+cjsw = 1.08e-10+dcjsw_ntdio12 
+mj = 0.39 vj = 0.445 
+mjsw = 0.464 vjsw = 0.21 
+cta = 2.66e-03 ctp = 4.68e-03 pta = 1.64e-03 
+ptp = 6.42e-04 fc = 0 
+area = 3.60e-09 perim = 2.40e-04 
// *
// ***********************************************************************************
// *                       3.3v native n+/pwell diode model                          *
// ***********************************************************************************
// *
model ntdio33 diode
+level = 1 is = 1.45e-06+djs_ntdio33 allow_scaling = yes dskip = no imax=1e20 isw = 1.00e-15+djsw_ntdio33 
+n = 1.0111+dn_ntdio33 ns = 1.0111+dn_ntdio33 rs = 1.00e-10 ik = 1.00e+21 minr=1e-6
+bv = 18.52 ibv = 277.8 
+trs = 1.32e-03 eg = 1.16 tnom = 25.0 
+xti = 3.0 tlev = 1 tlevc = 1 
+cjo = 1.37e-04+dcj_ntdio33 mj = 0.374 vj = 0.578 
+cjsw = 5.91e-11+dcjsw_ntdio33 mjsw = 0.343 vjsw = 0.305 
+pta = 1.97e-03 ptp = 1.82e-03 
+cta = 2.84e-03 ctp = 2.29e-03 fc = 0 
+area = 3.60e-09 perim = 2.40e-04 
// *
// ***********************************************************************************
// *                              nwell/psub diode model                             *
// ***********************************************************************************
// *
model nwdio diode
+level = 1 is = 6.96e-07+djs_nwdio allow_scaling = yes dskip = no imax=1e20 isw = 2.18e-12+djsw_nwdio 
+n = 1.0202+dn_nwdio ns = 1.0202+dn_nwdio rs = 1.00e-10 ik = 1.00e+21 minr=1e-6
+bv = 14.00 ibv = 19.6 
+trs = 2.10e-03 eg = 1.16 tnom = 25.0 
+xti = 3.0 tlev = 1 tlevc = 1 
+cjo = 1.29e-04+dcj_nwdio 
+cjsw = 5.49e-10+dcjsw_nwdio 
+mj = 0.375 vj = 0.553 
+mjsw = 0.271 vjsw = 0.649 
+pta = 0.0021353 ptp = 0.0021754 
+cta = 2.87e-03 ctp = 1.24e-03 fc = 0 
+area = 5.10e-08 perim = 9.4e-04 
// *
// ***********************************************************************************
// *                      1.2v hvt n+/pwell diode model                              *
// ***********************************************************************************
// *
model nhvtdio12 diode
+level = 1 is = 4.3091e-07+djs_nhvtdio12 allow_scaling = yes dskip = no imax=1e20 
+isw = 9.91e-14+djsw_nhvtdio12 
+n = 1.0502+dn_nhvtdio12 ns = 1.0502+dn_nhvtdio12 
+rs = 1.00e-10 ik = 1.00e+21 minr=1e-6
+bv = 9.0 ibv = 277.8 
+trs = 1.42e-03 eg = 1.16 tnom = 25.0 
+xti = 3.0 tlev = 1 tlevc = 1 
+cjo = 1.5941e-03+dcj_nhvtdio12 
+cjsw = 1.0698e-10+dcjsw_nhvtdio12 
+mj = 0.4941 vj = 0.8952 
+mjsw = 0.4868 vjsw = 0.855 
+cta = 7.54e-04 ctp = 3.83e-04 pta = 9.89e-04 
+ptp = 1.37e-03 fc = 0 
+area = 3.6e-9 perim = 2.4e-4 
// *
// ***********************************************************************************
// *                      1.2v hvt p+/nwell diode model                              *
// ***********************************************************************************
// *
model phvtdio12 diode
+level = 1 is = 1.51e-07+djs_phvtdio12 allow_scaling = yes dskip = no imax=1e20 
+isw = 6.12e-14+djsw_phvtdio12 
+n = 1.0119+dn_phvtdio12 ns = 1.0119+dn_phvtdio12 
+rs = 1.00e-10 ik = 1.00e+21 minr=1e-6
+bv = 8.0 ibv = 277.8 
+trs = 2.265e-03 eg = 1.16 tnom = 25.0 
+xti = 3.0 tlev = 1 tlevc = 1 
+cjo = 1.9299e-03+dcj_phvtdio12 
+cjsw = 1.2059e-10+dcjsw_phvtdio12 
+mj = 0.533 vj = 0.9 
+mjsw = 0.361 vjsw = 0.865 
+pta = 9.89e-04 ptp = 1.37e-03 cta = 7.54e-04 
+ctp = 3.83e-04 fc = 0 
+area = 3.6e-9 perim = 2.4e-4 
// *
// ***********************************************************************************
// *                      1.2v lvt n+/pwell diode model                              *
// ***********************************************************************************
// *
model nlvtdio12 diode
+level = 1 is = 7.14e-07+djs_nlvtdio12 allow_scaling = yes dskip = no imax=1e20 
+isw = 1.20e-13+djsw_nlvtdio12 
+n = 1.0656+dn_nlvtdio12 ns = 1.0656+dn_nlvtdio12 
+rs = 1.00e-10 ik = 1.00e+21 minr=1e-6
+bv = 11.1 ibv = 277.8 
+trs = 9.50e-04 eg = 1.16 tnom = 25.0 
+xti = 3.0 tlev = 1 tlevc = 1 
+cjo = 1.0197e-03+dcj_nlvtdio12 
+cjsw = 1.01e-10+dcjsw_nlvtdio12 
+mj = 0.31 vj = 0.473 
+mjsw = 0.296 vjsw = 0.35 
+cta = 9.69e-04 ctp = 3.00e-04 pta = 1.10e-03 
+ptp = 6.10e-04 fc = 0 
+area = 3.6e-9 perim = 2.4e-4 
// *
// ***********************************************************************************
// *                      1.2v lvt p+/nwell diode model                              *
// ***********************************************************************************
// *
model plvtdio12 diode
+level = 1 is = 2.2486e-07+djs_plvtdio12 allow_scaling = yes dskip = no imax=1e20 
+isw = 1.78e-13+djsw_plvtdio12 
+n = 1.02+dn_plvtdio12 ns = 1.02+dn_plvtdio12 
+rs = 1.00e-10 ik = 1.00e+21  minr=1e-6
+bv = 10.2 ibv = 277.8 
+trs = 3.20e-04 eg = 1.16 tnom = 25.0 
+xti = 3.0 tlev = 1 tlevc = 1 
+cjo = 1.1647e-03+dcj_plvtdio12 
+cjsw = 8.1045e-11+dcjsw_plvtdio12 
+mj = 0.4133 vj = 0.7794 
+mjsw = 0.203 vjsw = 0.3395 
+pta = 0.001359 ptp = 4.47e-04 cta = 8.93e-04 
+ctp = 7.18e-04 fc = 0 
+area = 3.6e-9 perim = 2.4e-4 
// *
// ***********************************************************************************
// *                             rwell/dnwell diode model                            *
// ***********************************************************************************
// *
model rwdio33 diode
+level = 1 is = 7.15e-06+djs_rwdio33 allow_scaling = yes dskip = no imax=1e20 
+isw = 4.17e-12+djsw_rwdio33 
+n = 1.08+dn_rwdio33 ns = 1.08+dn_rwdio33 
+rs = 1.00e-10 ik = 1.00e+21 minr=1e-6
+bv = 14 ibv = 139.8 
+trs = 6.30e-04 eg = 1.16 tnom = 25.0 
+xti = 3.0 tlev = 1 tlevc = 1 
+cjo = 6.19e-04+dcj_rwdio33 
+cjsw = 1.34e-09+dcjsw_rwdio33 
+mj = 0.348 vj = 0.656 
+mjsw = 0.394 vjsw = 0.671 
+cta = 0.0012169 ctp = 1.68e-03 pta = 0.001722
+ptp = 0.0020909 fc = 0 
+area = 7.152e-9 perim = 6.44e-4 
// *
// ***********************************************************************************
// *                             dnwell/psub diode model                             *
// ***********************************************************************************
// *
model dnwdio33 diode
+level = 1 is = 1.60e-06+djs_dnwdio33 allow_scaling = yes dskip = no imax=1e20 
+isw = 5.03e-12+djsw_dnwdio33 
+n = 1.016+dn_dnwdio33 ns = 1.016+dn_dnwdio33 
+rs = 1.00e-10 ik = 1.00e+21 minr=1e-6
+bv = 14 ibv = 111.1 
+trs = 3.5e-03 eg = 1.16 tnom = 25.0 
+xti = 3.0 tlev = 1 tlevc = 1 
+cjo = 6.63e-04+dcj_dnwdio33 
+cjsw = 1.25e-09+dcjsw_dnwdio33 
+mj = 0.375 vj = 0.688 
+mjsw = 0.38 vjsw = 0.658 
+cta = 1.35e-03 ctp = 2.0e-03 pta = 0.0016302
+ptp = 0.0022176 fc = 0 
+area = 9.0e-9 perim = 6.6e-4 
// *
// ***********************************************************************************
// *                              nwell/psub diode model                             *
// ***********************************************************************************
// *
model parasitic_nwd diode
+level = 1 is = 6.96e-07+djs_nwdio allow_scaling = yes dskip = no imax=1e20 isw = 2.18e-12+djsw_nwdio 
+n = 1.0202+dn_nwdio ns = 1.0202+dn_nwdio rs = 1.00e-10 ik = 1.00e+21 minr=1e-6
+bv = 14.00 ibv = 19.6 
+trs = 2.10e-03 eg = 1.16 tnom = 25.0 
+xti = 3.0 tlev = 1 tlevc = 1 
+cjo = 1.29e-04+dcj_nwdio 
+cjsw = 5.49e-10+dcjsw_nwdio 
+mj = 0.375 vj = 0.553 
+mjsw = 0.271 vjsw = 0.649 
+pta = 0.0021353 ptp = 0.0021754 
+cta = 2.87e-03 ctp = 1.24e-03 fc = 0 
+area = 5.10e-08 perim = 9.4e-04 
// *
// *
// ***********************************************************************************
// *                             rwell/dnwell diode model                            *
// ***********************************************************************************
// *
model parasitic_rwd diode
+level = 1 is = 7.15e-06+djs_rwdio33 allow_scaling = yes dskip = no imax=1e20 
+isw = 4.17e-12+djsw_rwdio33 
+n = 1.08+dn_rwdio33 ns = 1.08+dn_rwdio33 
+rs = 1.00e-10 ik = 1.00e+21 minr=1e-6
+bv = 14 ibv = 139.8 
+trs = 6.30e-04 eg = 1.16 tnom = 25.0 
+xti = 3.0 tlev = 1 tlevc = 1 
+cjo = 6.19e-04+dcj_rwdio33 
+cjsw = 1.34e-09+dcjsw_rwdio33 
+mj = 0.348 vj = 0.656 
+mjsw = 0.394 vjsw = 0.671 
+cta = 0.0012169 ctp = 1.68e-03 pta = 0.001722
+ptp = 0.0020909 fc = 0 
+area = 7.152e-9 perim = 6.44e-4 
// *
// ***********************************************************************************
// *                             dnwell/psub diode model                             *
// ***********************************************************************************
// *
model parasitic_dnwd diode
+level = 1 is = 1.60e-06+djs_dnwdio33 allow_scaling = yes dskip = no imax=1e20 
+isw = 5.03e-12+djsw_dnwdio33 
+n = 1.016+dn_dnwdio33 ns = 1.016+dn_dnwdio33 
+rs = 1.00e-10 ik = 1.00e+21 minr=1e-6
+bv = 14 ibv = 111.1 
+trs = 3.5e-03 eg = 1.16 tnom = 25.0 
+xti = 3.0 tlev = 1 tlevc = 1 
+cjo = 6.63e-04+dcj_dnwdio33 
+cjsw = 1.25e-09+dcjsw_dnwdio33 
+mj = 0.375 vj = 0.688 
+mjsw = 0.38 vjsw = 0.658 
+cta = 1.35e-03 ctp = 2.0e-03 pta = 0.0016302
+ptp = 0.0022176 fc = 0 
+area = 9.0e-9 perim = 6.6e-4 
// *