//*Spectre Model Format
simulator lang=spectre  insensitive=yes

// *
// * no part of this file can be released without the consent of smic.
// *
************************************************************************************************
* SMIC 0.11um Mixed Signal 1P8M(1P7M, 1P6M, 1P5M) 1.2V/3.3V SPICE MIM model (for Spectre only) * 
************************************************************************************************
// *
// * release version    : 1.24
// *
// * release date       : 1/16/2015
// *
// * simulation tool    : Cadence spectre V10.1.1
// *
// *   mim capacitor    : mim
// *
//* mim cap:
//*        *---------------------------------------------------------------------------------------------------------* 
//*        |  mim cap type           |  cspec = 1ff/um^2  | cspec = 1.5ff/um^2 | cspec = 2ff/um^2 | cspec = 3ff/um^2 |
//*        |=========================================================================================================| 
//*        |  mim model(one mask)    |     mim1           |   mim15            |    NA            |    mim3          |
//*        |---------------------------------------------------------------------------------------------------------|
//*        |  mim model(two mask)    |       NA           |      NA            |  mim2_tm         |     NA           |
//*        |---------------------------------------------------------------------------------------------------------|
//* Valid temperature range is from -40C to 125C
// *
******************************************************************************** 
*         one-mask mim capacitor  (cspec = 1ff/um^2)                           * 
********************************************************************************
model mim1 capacitor     
+coeffs = [8.03e-6 3.74e-6]
+tc1 = 4.088e-5  tnom = 25
+cj = 9.71E-04*(1+DMIM1)
*
******************************************************************************** 
*         one-mask mim capacitor  (cspec = 1.5ff/um^2)                         * 
********************************************************************************
model mim15 capacitor
+coeffs = [9.68e-6 6.72e-6]
+tc1 = 3.758E-05  tnom = 25
+cj = 1.449E-03*(1+DMIM15)
*
******************************************************************************** 
*         two-mask mim capacitor  (cspec = 2ff/um^2)                           * 
********************************************************************************
model mim2_tm capacitor
+coeffs = [-6.119607E-05 2.660293E-05]
+tc1 =3.25876E-05  tnom = 25
+cj = 2.1E-03*(1+DMIM2_tm)
******************************************************************************** 
*         one-mask stacked mim capacitor  (cspec = 3ff/um^2)                           * 
********************************************************************************
model mim3 capacitor
+coeffs = [2.37303251E-06 8.08656805E-06]
+tc1 = 4.497955E-05  tnom = 25
+cj = 3.01368807e-3*(1+dmim3)
// *