* SPICE INPUT		Mon Sep 24 12:03:06 2018	ad01d0
* EV_NETLIST Version AMD.64 Release B-2008.09.SP5.HF4.26013 2015/05/03
*
*The following line needed for Star-CR:
*CRU_OPT (KEEP_ELEMENTS "^[CR]D")
*
*The following line needed for CDL:
*.BIPOLAR

* Hierarchy Level 0

* Top of hierarchy  cell=ad01d0
.subckt ad01d0 S VDD CO GND B CI A
M1 N_4 N_13 N_2 GND mn5  l=0.5u w=0.6u m=1
M2 N_2 CI N_3 GND mn5  l=0.5u w=0.6u m=1
M3 GND N_2 S GND mn5  l=0.5u w=0.6u m=1
M4 N_12 B GND GND mn5  l=0.5u w=0.6u m=1
M5 N_19 N_12 GND GND mn5  l=0.5u w=0.6u m=1
M6 N_19 N_11 N_3 GND mn5  l=0.5u w=0.6u m=1
M7 N_3 N_19 N_11 GND mn5  l=0.5u w=0.6u m=1
M8 N_11 A GND GND mn5  l=0.5u w=0.6u m=1
M9 N_4 N_12 N_11 GND mn5  l=0.5u w=0.6u m=1
M10 N_12 N_11 N_4 GND mn5  l=0.5u w=0.6u m=1
M11 N_12 N_4 N_14 GND mn5  l=0.5u w=0.6u m=1
M12 N_13 N_3 N_14 GND mn5  l=0.5u w=0.6u m=1
M13 N_13 CI GND GND mn5  l=0.5u w=0.6u m=1
M14 CO N_14 GND GND mn5  l=0.5u w=0.6u m=1
M15 N_3 N_13 N_2 VDD mp5  l=0.42u w=0.62u m=1
M16 N_4 CI N_2 VDD mp5  l=0.42u w=0.62u m=1
M17 VDD N_2 S VDD mp5  l=0.42u w=0.62u m=1
M18 N_11 A VDD VDD mp5  l=0.42u w=0.62u m=1
M19 N_11 N_12 N_3 VDD mp5  l=0.42u w=0.62u m=1
M20 N_12 N_11 N_3 VDD mp5  l=0.42u w=0.62u m=1
M21 N_14 N_3 N_12 VDD mp5  l=0.42u w=0.62u m=1
M22 N_14 N_4 N_13 VDD mp5  l=0.42u w=0.62u m=1
M23 N_13 CI VDD VDD mp5  l=0.42u w=0.62u m=1
M24 VDD N_14 CO VDD mp5  l=0.42u w=0.62u m=1
M25 N_12 B VDD VDD mp5  l=0.42u w=0.62u m=1
M26 N_19 N_12 VDD VDD mp5  l=0.42u w=0.62u m=1
M27 N_19 N_11 N_4 VDD mp5  l=0.42u w=0.62u m=1
M28 N_11 N_19 N_4 VDD mp5  l=0.42u w=0.62u m=1
.ends ad01d0
* SPICE INPUT		Mon Sep 24 12:03:14 2018	ad01d1
* EV_NETLIST Version AMD.64 Release B-2008.09.SP5.HF4.26013 2015/05/03
*
*The following line needed for Star-CR:
*CRU_OPT (KEEP_ELEMENTS "^[CR]D")
*
*The following line needed for CDL:
*.BIPOLAR

* Hierarchy Level 0

* Top of hierarchy  cell=ad01d1
.subckt ad01d1 VDD CO S GND B A CI
M1 N_5 N_14 N_6 GND mn5  l=0.5u w=0.6u m=1
M2 N_14 N_6 N_5 GND mn5  l=0.5u w=0.6u m=1
M3 N_14 N_7 GND GND mn5  l=0.5u w=0.6u m=1
M4 N_7 B GND GND mn5  l=0.5u w=0.6u m=1
M5 CO N_9 GND GND mn5  l=0.5u w=0.72u m=1
M6 N_8 CI GND GND mn5  l=0.5u w=0.6u m=1
M7 N_8 N_5 N_9 GND mn5  l=0.5u w=0.6u m=1
M8 N_7 N_10 N_9 GND mn5  l=0.5u w=0.6u m=1
M9 N_7 N_6 N_10 GND mn5  l=0.5u w=0.6u m=1
M10 N_10 N_7 N_6 GND mn5  l=0.5u w=0.6u m=1
M11 N_6 A GND GND mn5  l=0.5u w=0.6u m=1
M12 GND N_17 S GND mn5  l=0.5u w=0.72u m=1
M13 N_17 CI N_5 GND mn5  l=0.5u w=0.6u m=1
M14 N_10 N_8 N_17 GND mn5  l=0.5u w=0.6u m=1
M15 CO N_9 VDD VDD mp5  l=0.42u w=0.96u m=1
M16 N_8 CI VDD VDD mp5  l=0.42u w=0.62u m=1
M17 N_9 N_10 N_8 VDD mp5  l=0.42u w=0.62u m=1
M18 N_9 N_5 N_7 VDD mp5  l=0.42u w=0.62u m=1
M19 N_7 N_6 N_5 VDD mp5  l=0.42u w=0.62u m=1
M20 N_6 N_7 N_5 VDD mp5  l=0.42u w=0.62u m=1
M21 N_6 A VDD VDD mp5  l=0.42u w=0.62u m=1
M22 N_6 N_14 N_10 VDD mp5  l=0.42u w=0.62u m=1
M23 N_14 N_6 N_10 VDD mp5  l=0.42u w=0.62u m=1
M24 N_14 N_7 VDD VDD mp5  l=0.42u w=0.62u m=1
M25 N_7 B VDD VDD mp5  l=0.42u w=0.62u m=1
M26 VDD N_17 S VDD mp5  l=0.42u w=0.96u m=1
M27 N_10 CI N_17 VDD mp5  l=0.42u w=0.62u m=1
M28 N_5 N_8 N_17 VDD mp5  l=0.42u w=0.62u m=1
.ends ad01d1
* SPICE INPUT		Mon Sep 24 12:03:23 2018	ad01d2
* EV_NETLIST Version AMD.64 Release B-2008.09.SP5.HF4.26013 2015/05/03
*
*The following line needed for Star-CR:
*CRU_OPT (KEEP_ELEMENTS "^[CR]D")
*
*The following line needed for CDL:
*.BIPOLAR

* Hierarchy Level 0

* Top of hierarchy  cell=ad01d2
.subckt ad01d2 VDD CO S GND B A CI
M1 N_5 N_14 N_6 GND mn5  l=0.5u w=0.6u m=1
M2 N_14 N_6 N_5 GND mn5  l=0.5u w=0.6u m=1
M3 N_14 N_7 GND GND mn5  l=0.5u w=0.6u m=1
M4 N_7 B GND GND mn5  l=0.5u w=0.6u m=1
M5 CO N_9 GND GND mn5  l=0.5u w=0.98u m=1
M6 N_8 CI GND GND mn5  l=0.5u w=0.6u m=1
M7 N_8 N_5 N_9 GND mn5  l=0.5u w=0.6u m=1
M8 N_7 N_10 N_9 GND mn5  l=0.5u w=0.6u m=1
M9 N_7 N_6 N_10 GND mn5  l=0.5u w=0.6u m=1
M10 N_10 N_7 N_6 GND mn5  l=0.5u w=0.6u m=1
M11 N_6 A GND GND mn5  l=0.5u w=0.6u m=1
M12 GND N_17 S GND mn5  l=0.5u w=0.98u m=1
M13 N_17 CI N_5 GND mn5  l=0.5u w=0.6u m=1
M14 N_10 N_8 N_17 GND mn5  l=0.5u w=0.6u m=1
M15 CO N_9 VDD VDD mp5  l=0.42u w=1.28u m=1
M16 N_8 CI VDD VDD mp5  l=0.42u w=0.62u m=1
M17 N_9 N_10 N_8 VDD mp5  l=0.42u w=0.62u m=1
M18 N_9 N_5 N_7 VDD mp5  l=0.42u w=0.62u m=1
M19 N_7 N_6 N_5 VDD mp5  l=0.42u w=0.62u m=1
M20 N_6 N_7 N_5 VDD mp5  l=0.42u w=0.62u m=1
M21 N_6 A VDD VDD mp5  l=0.42u w=0.62u m=1
M22 N_6 N_14 N_10 VDD mp5  l=0.42u w=0.62u m=1
M23 N_14 N_6 N_10 VDD mp5  l=0.42u w=0.62u m=1
M24 N_14 N_7 VDD VDD mp5  l=0.42u w=0.62u m=1
M25 N_7 B VDD VDD mp5  l=0.42u w=0.62u m=1
M26 VDD N_17 S VDD mp5  l=0.42u w=1.28u m=1
M27 N_10 CI N_17 VDD mp5  l=0.42u w=0.62u m=1
M28 N_5 N_8 N_17 VDD mp5  l=0.42u w=0.62u m=1
.ends ad01d2
* SPICE INPUT		Mon Sep 24 12:03:31 2018	ah01d0
* EV_NETLIST Version AMD.64 Release B-2008.09.SP5.HF4.26013 2015/05/03
*
*The following line needed for Star-CR:
*CRU_OPT (KEEP_ELEMENTS "^[CR]D")
*
*The following line needed for CDL:
*.BIPOLAR

* Hierarchy Level 0

* Top of hierarchy  cell=ah01d0
.subckt ah01d0 B A GND S CO VDD
M1 N_26 B GND GND mn5  l=0.5u w=0.6u m=1
M2 N_26 A N_7 GND mn5  l=0.5u w=0.6u m=1
M3 CO N_7 GND GND mn5  l=0.5u w=0.6u m=1
M4 N_2 B GND GND mn5  l=0.5u w=0.6u m=1
M5 N_4 A GND GND mn5  l=0.5u w=0.6u m=1
M6 N_12 N_4 GND GND mn5  l=0.5u w=0.6u m=1
M7 N_4 B S GND mn5  l=0.5u w=0.6u m=1
M8 S N_2 N_12 GND mn5  l=0.5u w=0.6u m=1
M9 N_2 B VDD VDD mp5  l=0.42u w=0.62u m=1
M10 N_4 A VDD VDD mp5  l=0.42u w=0.62u m=1
M11 N_4 N_2 S VDD mp5  l=0.42u w=0.62u m=1
M12 N_12 N_4 VDD VDD mp5  l=0.42u w=0.62u m=1
M13 S B N_12 VDD mp5  l=0.42u w=0.62u m=1
M14 N_7 B VDD VDD mp5  l=0.42u w=0.62u m=1
M15 N_7 A VDD VDD mp5  l=0.42u w=0.62u m=1
M16 CO N_7 VDD VDD mp5  l=0.42u w=0.62u m=1
.ends ah01d0
* SPICE INPUT		Mon Sep 24 12:03:40 2018	ah01d1
* EV_NETLIST Version AMD.64 Release B-2008.09.SP5.HF4.26013 2015/05/03
*
*The following line needed for Star-CR:
*CRU_OPT (KEEP_ELEMENTS "^[CR]D")
*
*The following line needed for CDL:
*.BIPOLAR

* Hierarchy Level 0

* Top of hierarchy  cell=ah01d1
.subckt ah01d1 A B CO GND VDD S
M1 S N_9 N_14 GND mn5  l=0.5u w=0.72u m=1
M2 S B N_7 GND mn5  l=0.5u w=0.72u m=1
M3 N_14 N_7 GND GND mn5  l=0.5u w=0.6u m=1
M4 N_9 B GND GND mn5  l=0.5u w=0.6u m=1
M5 N_7 A GND GND mn5  l=0.5u w=0.6u m=1
M6 N_16 B GND GND mn5  l=0.5u w=0.6u m=1
M7 CO N_3 GND GND mn5  l=0.5u w=0.72u m=1
M8 N_16 A N_3 GND mn5  l=0.5u w=0.6u m=1
M9 N_14 B S VDD mp5  l=0.42u w=0.96u m=1
M10 N_7 N_9 S VDD mp5  l=0.42u w=0.96u m=1
M11 N_14 N_7 VDD VDD mp5  l=0.42u w=0.62u m=1
M12 N_9 B VDD VDD mp5  l=0.42u w=0.62u m=1
M13 N_7 A VDD VDD mp5  l=0.42u w=0.62u m=1
M14 N_3 B VDD VDD mp5  l=0.42u w=0.62u m=1
M15 CO N_3 VDD VDD mp5  l=0.42u w=0.96u m=1
M16 N_3 A VDD VDD mp5  l=0.42u w=0.62u m=1
.ends ah01d1
* SPICE INPUT		Mon Sep 24 12:03:49 2018	ah01d2
* EV_NETLIST Version AMD.64 Release B-2008.09.SP5.HF4.26013 2015/05/03
*
*The following line needed for Star-CR:
*CRU_OPT (KEEP_ELEMENTS "^[CR]D")
*
*The following line needed for CDL:
*.BIPOLAR

* Hierarchy Level 0

* Top of hierarchy  cell=ah01d2
.subckt ah01d2 A B GND VDD CO S
M1 CO N_8 GND GND mn5  l=0.5u w=0.98u m=1
M2 N_25 A N_8 GND mn5  l=0.5u w=0.6u m=1
M3 N_25 B GND GND mn5  l=0.5u w=0.6u m=1
M4 N_4 B GND GND mn5  l=0.5u w=0.6u m=1
M5 N_14 N_5 GND GND mn5  l=0.5u w=0.6u m=1
M6 S N_4 N_14 GND mn5  l=0.5u w=0.98u m=1
M7 S B N_5 GND mn5  l=0.5u w=0.98u m=1
M8 N_5 A GND GND mn5  l=0.5u w=0.6u m=1
M9 N_4 B VDD VDD mp5  l=0.42u w=0.62u m=1
M10 N_14 N_5 VDD VDD mp5  l=0.42u w=0.62u m=1
M11 S B N_14 VDD mp5  l=0.42u w=1.28u m=1
M12 S N_4 N_5 VDD mp5  l=0.42u w=1.28u m=1
M13 CO N_8 VDD VDD mp5  l=0.42u w=1.28u m=1
M14 N_8 A VDD VDD mp5  l=0.42u w=0.62u m=1
M15 VDD A N_5 VDD mp5  l=0.42u w=0.62u m=1
M16 N_8 B VDD VDD mp5  l=0.42u w=0.62u m=1
.ends ah01d2
* SPICE INPUT		Mon Sep 24 12:03:58 2018	an02d0
* EV_NETLIST Version AMD.64 Release B-2008.09.SP5.HF4.26013 2015/05/03
*
*The following line needed for Star-CR:
*CRU_OPT (KEEP_ELEMENTS "^[CR]D")
*
*The following line needed for CDL:
*.BIPOLAR

* Hierarchy Level 0

* Top of hierarchy  cell=an02d0
.subckt an02d0 A B GND Y VDD
M1 Y N_4 GND GND mn5  l=0.5u w=0.6u m=1
M2 N_12 B GND GND mn5  l=0.5u w=0.6u m=1
M3 N_12 A N_4 GND mn5  l=0.5u w=0.6u m=1
M4 Y N_4 VDD VDD mp5  l=0.42u w=0.62u m=1
M5 N_4 B VDD VDD mp5  l=0.42u w=0.62u m=1
M6 N_4 A VDD VDD mp5  l=0.42u w=0.62u m=1
.ends an02d0
* SPICE INPUT		Mon Sep 24 12:04:07 2018	an02d1
* EV_NETLIST Version AMD.64 Release B-2008.09.SP5.HF4.26013 2015/05/03
*
*The following line needed for Star-CR:
*CRU_OPT (KEEP_ELEMENTS "^[CR]D")
*
*The following line needed for CDL:
*.BIPOLAR

* Hierarchy Level 0

* Top of hierarchy  cell=an02d1
.subckt an02d1 A B GND Y VDD
M1 Y N_4 GND GND mn5  l=0.5u w=0.72u m=1
M2 N_8 B GND GND mn5  l=0.5u w=0.6u m=1
M3 N_8 A N_4 GND mn5  l=0.5u w=0.6u m=1
M4 Y N_4 VDD VDD mp5  l=0.42u w=0.96u m=1
M5 N_4 B VDD VDD mp5  l=0.42u w=0.62u m=1
M6 N_4 A VDD VDD mp5  l=0.42u w=0.62u m=1
.ends an02d1
* SPICE INPUT		Mon Sep 24 12:04:15 2018	an02d2
* EV_NETLIST Version AMD.64 Release B-2008.09.SP5.HF4.26013 2015/05/03
*
*The following line needed for Star-CR:
*CRU_OPT (KEEP_ELEMENTS "^[CR]D")
*
*The following line needed for CDL:
*.BIPOLAR

* Hierarchy Level 0

* Top of hierarchy  cell=an02d2
.subckt an02d2 A B GND Y VDD
M1 Y N_4 GND GND mn5  l=0.5u w=0.98u m=1
M2 N_8 B GND GND mn5  l=0.5u w=0.6u m=1
M3 N_8 A N_4 GND mn5  l=0.5u w=0.6u m=1
M4 Y N_4 VDD VDD mp5  l=0.42u w=1.28u m=1
M5 N_4 B VDD VDD mp5  l=0.42u w=0.62u m=1
M6 N_4 A VDD VDD mp5  l=0.42u w=0.62u m=1
.ends an02d2
* SPICE INPUT		Mon Sep 24 12:04:24 2018	an03d0
* EV_NETLIST Version AMD.64 Release B-2008.09.SP5.HF4.26013 2015/05/03
*
*The following line needed for Star-CR:
*CRU_OPT (KEEP_ELEMENTS "^[CR]D")
*
*The following line needed for CDL:
*.BIPOLAR

* Hierarchy Level 0

* Top of hierarchy  cell=an03d0
.subckt an03d0 C A B VDD GND Y
M1 Y N_5 GND GND mn5  l=0.5u w=0.6u m=1
M2 N_10 B N_9 GND mn5  l=0.5u w=0.6u m=1
M3 N_9 A N_5 GND mn5  l=0.5u w=0.6u m=1
M4 N_10 C GND GND mn5  l=0.5u w=0.6u m=1
M5 Y N_5 VDD VDD mp5  l=0.42u w=0.62u m=1
M6 N_5 B VDD VDD mp5  l=0.42u w=0.62u m=1
M7 N_5 A VDD VDD mp5  l=0.42u w=0.62u m=1
M8 N_5 C VDD VDD mp5  l=0.42u w=0.62u m=1
.ends an03d0
* SPICE INPUT		Mon Sep 24 12:04:32 2018	an03d1
* EV_NETLIST Version AMD.64 Release B-2008.09.SP5.HF4.26013 2015/05/03
*
*The following line needed for Star-CR:
*CRU_OPT (KEEP_ELEMENTS "^[CR]D")
*
*The following line needed for CDL:
*.BIPOLAR

* Hierarchy Level 0

* Top of hierarchy  cell=an03d1
.subckt an03d1 C A B VDD GND Y
M1 Y N_5 GND GND mn5  l=0.5u w=0.72u m=1
M2 N_10 B N_9 GND mn5  l=0.5u w=0.6u m=1
M3 N_9 A N_5 GND mn5  l=0.5u w=0.6u m=1
M4 N_10 C GND GND mn5  l=0.5u w=0.6u m=1
M5 Y N_5 VDD VDD mp5  l=0.42u w=0.96u m=1
M6 N_5 B VDD VDD mp5  l=0.42u w=0.62u m=1
M7 N_5 A VDD VDD mp5  l=0.42u w=0.62u m=1
M8 N_5 C VDD VDD mp5  l=0.42u w=0.62u m=1
.ends an03d1
* SPICE INPUT		Mon Sep 24 12:04:41 2018	an03d2
* EV_NETLIST Version AMD.64 Release B-2008.09.SP5.HF4.26013 2015/05/03
*
*The following line needed for Star-CR:
*CRU_OPT (KEEP_ELEMENTS "^[CR]D")
*
*The following line needed for CDL:
*.BIPOLAR

* Hierarchy Level 0

* Top of hierarchy  cell=an03d2
.subckt an03d2 C A B VDD GND Y
M1 Y N_5 GND GND mn5  l=0.5u w=0.98u m=1
M2 N_10 B N_9 GND mn5  l=0.5u w=0.6u m=1
M3 N_9 A N_5 GND mn5  l=0.5u w=0.6u m=1
M4 N_10 C GND GND mn5  l=0.5u w=0.6u m=1
M5 Y N_5 VDD VDD mp5  l=0.42u w=1.28u m=1
M6 N_5 B VDD VDD mp5  l=0.42u w=0.62u m=1
M7 N_5 A VDD VDD mp5  l=0.42u w=0.62u m=1
M8 N_5 C VDD VDD mp5  l=0.42u w=0.62u m=1
.ends an03d2
* SPICE INPUT		Mon Sep 24 12:04:50 2018	an04d0
* EV_NETLIST Version AMD.64 Release B-2008.09.SP5.HF4.26013 2015/05/03
*
*The following line needed for Star-CR:
*CRU_OPT (KEEP_ELEMENTS "^[CR]D")
*
*The following line needed for CDL:
*.BIPOLAR

* Hierarchy Level 0

* Top of hierarchy  cell=an04d0
.subckt an04d0 A B C D VDD Y GND
M1 Y N_6 GND GND mn5  l=0.5u w=0.6u m=1
M2 N_12 D GND GND mn5  l=0.5u w=0.6u m=1
M3 N_12 C N_11 GND mn5  l=0.5u w=0.6u m=1
M4 N_11 B N_10 GND mn5  l=0.5u w=0.6u m=1
M5 N_10 A N_6 GND mn5  l=0.5u w=0.6u m=1
M6 Y N_6 VDD VDD mp5  l=0.42u w=0.62u m=1
M7 N_6 D VDD VDD mp5  l=0.42u w=0.62u m=1
M8 N_6 C VDD VDD mp5  l=0.42u w=0.62u m=1
M9 N_6 B VDD VDD mp5  l=0.42u w=0.62u m=1
M10 N_6 A VDD VDD mp5  l=0.42u w=0.62u m=1
.ends an04d0
* SPICE INPUT		Mon Sep 24 12:04:58 2018	an04d1
* EV_NETLIST Version AMD.64 Release B-2008.09.SP5.HF4.26013 2015/05/03
*
*The following line needed for Star-CR:
*CRU_OPT (KEEP_ELEMENTS "^[CR]D")
*
*The following line needed for CDL:
*.BIPOLAR

* Hierarchy Level 0

* Top of hierarchy  cell=an04d1
.subckt an04d1 A B C D VDD Y GND
M1 Y N_6 GND GND mn5  l=0.5u w=0.72u m=1
M2 N_12 D GND GND mn5  l=0.5u w=0.6u m=1
M3 N_12 C N_11 GND mn5  l=0.5u w=0.6u m=1
M4 N_11 B N_10 GND mn5  l=0.5u w=0.6u m=1
M5 N_10 A N_6 GND mn5  l=0.5u w=0.6u m=1
M6 Y N_6 VDD VDD mp5  l=0.42u w=0.96u m=1
M7 N_6 D VDD VDD mp5  l=0.42u w=0.62u m=1
M8 N_6 C VDD VDD mp5  l=0.42u w=0.62u m=1
M9 N_6 B VDD VDD mp5  l=0.42u w=0.62u m=1
M10 N_6 A VDD VDD mp5  l=0.42u w=0.62u m=1
.ends an04d1
* SPICE INPUT		Mon Sep 24 12:05:07 2018	an04d2
* EV_NETLIST Version AMD.64 Release B-2008.09.SP5.HF4.26013 2015/05/03
*
*The following line needed for Star-CR:
*CRU_OPT (KEEP_ELEMENTS "^[CR]D")
*
*The following line needed for CDL:
*.BIPOLAR

* Hierarchy Level 0

* Top of hierarchy  cell=an04d2
.subckt an04d2 A B C D VDD Y GND
M1 Y N_6 GND GND mn5  l=0.5u w=0.98u m=1
M2 N_12 D GND GND mn5  l=0.5u w=0.6u m=1
M3 N_12 C N_11 GND mn5  l=0.5u w=0.6u m=1
M4 N_11 B N_10 GND mn5  l=0.5u w=0.6u m=1
M5 N_10 A N_6 GND mn5  l=0.5u w=0.6u m=1
M6 Y N_6 VDD VDD mp5  l=0.42u w=1.28u m=1
M7 N_6 D VDD VDD mp5  l=0.42u w=0.62u m=1
M8 N_6 C VDD VDD mp5  l=0.42u w=0.62u m=1
M9 N_6 B VDD VDD mp5  l=0.42u w=0.62u m=1
M10 N_6 A VDD VDD mp5  l=0.42u w=0.62u m=1
.ends an04d2
* SPICE INPUT		Mon Sep 24 12:05:15 2018	an12d0
* EV_NETLIST Version AMD.64 Release B-2008.09.SP5.HF4.26013 2015/05/03
*
*The following line needed for Star-CR:
*CRU_OPT (KEEP_ELEMENTS "^[CR]D")
*
*The following line needed for CDL:
*.BIPOLAR

* Hierarchy Level 0

* Top of hierarchy  cell=an12d0
.subckt an12d0 B AN VDD GND Y
M1 N_2 AN GND GND mn5  l=0.5u w=0.6u m=1
M2 Y N_4 GND GND mn5  l=0.5u w=0.6u m=1
M3 N_15 B GND GND mn5  l=0.5u w=0.6u m=1
M4 N_15 N_2 N_4 GND mn5  l=0.5u w=0.6u m=1
M5 N_2 AN VDD VDD mp5  l=0.42u w=0.62u m=1
M6 Y N_4 VDD VDD mp5  l=0.42u w=0.62u m=1
M7 N_4 B VDD VDD mp5  l=0.42u w=0.62u m=1
M8 N_4 N_2 VDD VDD mp5  l=0.42u w=0.62u m=1
.ends an12d0
* SPICE INPUT		Mon Sep 24 12:05:24 2018	an12d1
* EV_NETLIST Version AMD.64 Release B-2008.09.SP5.HF4.26013 2015/05/03
*
*The following line needed for Star-CR:
*CRU_OPT (KEEP_ELEMENTS "^[CR]D")
*
*The following line needed for CDL:
*.BIPOLAR

* Hierarchy Level 0

* Top of hierarchy  cell=an12d1
.subckt an12d1 AN B VDD GND Y
M1 Y N_5 GND GND mn5  l=0.5u w=0.72u m=1
M2 N_15 B GND GND mn5  l=0.5u w=0.6u m=1
M3 N_15 N_3 N_5 GND mn5  l=0.5u w=0.6u m=1
M4 N_3 AN GND GND mn5  l=0.5u w=0.6u m=1
M5 N_3 AN VDD VDD mp5  l=0.42u w=0.62u m=1
M6 Y N_5 VDD VDD mp5  l=0.42u w=0.96u m=1
M7 N_5 B VDD VDD mp5  l=0.42u w=0.62u m=1
M8 N_5 N_3 VDD VDD mp5  l=0.42u w=0.62u m=1
.ends an12d1
* SPICE INPUT		Mon Sep 24 12:05:32 2018	an12d2
* EV_NETLIST Version AMD.64 Release B-2008.09.SP5.HF4.26013 2015/05/03
*
*The following line needed for Star-CR:
*CRU_OPT (KEEP_ELEMENTS "^[CR]D")
*
*The following line needed for CDL:
*.BIPOLAR

* Hierarchy Level 0

* Top of hierarchy  cell=an12d2
.subckt an12d2 AN B VDD GND Y
M1 Y N_5 GND GND mn5  l=0.5u w=0.98u m=1
M2 N_15 B GND GND mn5  l=0.5u w=0.6u m=1
M3 N_15 N_3 N_5 GND mn5  l=0.5u w=0.6u m=1
M4 N_3 AN GND GND mn5  l=0.5u w=0.6u m=1
M5 N_3 AN VDD VDD mp5  l=0.42u w=0.62u m=1
M6 Y N_5 VDD VDD mp5  l=0.42u w=1.28u m=1
M7 N_5 B VDD VDD mp5  l=0.42u w=0.62u m=1
M8 N_5 N_3 VDD VDD mp5  l=0.42u w=0.62u m=1
.ends an12d2
* SPICE INPUT		Mon Sep 24 12:05:42 2018	an13d0
* EV_NETLIST Version AMD.64 Release B-2008.09.SP5.HF4.26013 2015/05/03
*
*The following line needed for Star-CR:
*CRU_OPT (KEEP_ELEMENTS "^[CR]D")
*
*The following line needed for CDL:
*.BIPOLAR

* Hierarchy Level 0

* Top of hierarchy  cell=an13d0
.subckt an13d0 B C AN Y GND VDD
M1 Y N_6 GND GND mn5  l=0.5u w=0.6u m=1
M2 N_2 AN GND GND mn5  l=0.5u w=0.6u m=1
M3 GND C N_10 GND mn5  l=0.5u w=0.6u m=1
M4 N_11 B N_10 GND mn5  l=0.5u w=0.6u m=1
M5 N_11 N_2 N_6 GND mn5  l=0.5u w=0.6u m=1
M6 N_6 C VDD VDD mp5  l=0.42u w=0.62u m=1
M7 N_6 B VDD VDD mp5  l=0.42u w=0.62u m=1
M8 N_6 N_2 VDD VDD mp5  l=0.42u w=0.62u m=1
M9 Y N_6 VDD VDD mp5  l=0.42u w=0.62u m=1
M10 N_2 AN VDD VDD mp5  l=0.42u w=0.62u m=1
.ends an13d0
* SPICE INPUT		Mon Sep 24 12:05:50 2018	an13d1
* EV_NETLIST Version AMD.64 Release B-2008.09.SP5.HF4.26013 2015/05/03
*
*The following line needed for Star-CR:
*CRU_OPT (KEEP_ELEMENTS "^[CR]D")
*
*The following line needed for CDL:
*.BIPOLAR

* Hierarchy Level 0

* Top of hierarchy  cell=an13d1
.subckt an13d1 AN B C Y GND VDD
M1 GND C N_16 GND mn5  l=0.5u w=0.6u m=1
M2 N_17 B N_16 GND mn5  l=0.5u w=0.6u m=1
M3 N_17 N_4 N_3 GND mn5  l=0.5u w=0.6u m=1
M4 Y N_3 GND GND mn5  l=0.5u w=0.72u m=1
M5 N_4 AN GND GND mn5  l=0.5u w=0.6u m=1
M6 N_3 C VDD VDD mp5  l=0.42u w=0.62u m=1
M7 N_3 B VDD VDD mp5  l=0.42u w=0.62u m=1
M8 N_3 N_4 VDD VDD mp5  l=0.42u w=0.62u m=1
M9 Y N_3 VDD VDD mp5  l=0.42u w=0.96u m=1
M10 N_4 AN VDD VDD mp5  l=0.42u w=0.62u m=1
.ends an13d1
* SPICE INPUT		Mon Sep 24 12:05:59 2018	an13d2
* EV_NETLIST Version AMD.64 Release B-2008.09.SP5.HF4.26013 2015/05/03
*
*The following line needed for Star-CR:
*CRU_OPT (KEEP_ELEMENTS "^[CR]D")
*
*The following line needed for CDL:
*.BIPOLAR

* Hierarchy Level 0

* Top of hierarchy  cell=an13d2
.subckt an13d2 B C AN VDD GND Y
M1 Y N_6 GND GND mn5  l=0.5u w=0.98u m=1
M2 N_2 AN GND GND mn5  l=0.5u w=0.6u m=1
M3 N_10 C GND GND mn5  l=0.5u w=0.6u m=1
M4 N_11 B N_10 GND mn5  l=0.5u w=0.6u m=1
M5 N_6 N_2 N_11 GND mn5  l=0.5u w=0.6u m=1
M6 N_6 C VDD VDD mp5  l=0.42u w=0.62u m=1
M7 N_6 B VDD VDD mp5  l=0.42u w=0.62u m=1
M8 N_6 N_2 VDD VDD mp5  l=0.42u w=0.62u m=1
M9 Y N_6 VDD VDD mp5  l=0.42u w=1.28u m=1
M10 N_2 AN VDD VDD mp5  l=0.42u w=0.62u m=1
.ends an13d2
* SPICE INPUT		Mon Sep 24 12:06:07 2018	an23d0
* EV_NETLIST Version AMD.64 Release B-2008.09.SP5.HF4.26013 2015/05/03
*
*The following line needed for Star-CR:
*CRU_OPT (KEEP_ELEMENTS "^[CR]D")
*
*The following line needed for CDL:
*.BIPOLAR

* Hierarchy Level 0

* Top of hierarchy  cell=an23d0
.subckt an23d0 C AN BN Y VDD GND
M1 N_5 BN GND GND mn5  l=0.5u w=0.6u m=1
M2 N_3 AN GND GND mn5  l=0.5u w=0.6u m=1
M3 N_12 N_5 N_11 GND mn5  l=0.5u w=0.6u m=1
M4 Y N_4 GND GND mn5  l=0.5u w=0.6u m=1
M5 N_11 N_3 N_4 GND mn5  l=0.5u w=0.6u m=1
M6 N_12 C GND GND mn5  l=0.5u w=0.6u m=1
M7 N_5 BN VDD VDD mp5  l=0.42u w=0.62u m=1
M8 N_3 AN VDD VDD mp5  l=0.42u w=0.62u m=1
M9 N_4 N_5 VDD VDD mp5  l=0.42u w=0.62u m=1
M10 Y N_4 VDD VDD mp5  l=0.42u w=0.62u m=1
M11 N_4 N_3 VDD VDD mp5  l=0.42u w=0.62u m=1
M12 N_4 C VDD VDD mp5  l=0.42u w=0.62u m=1
.ends an23d0
* SPICE INPUT		Mon Sep 24 12:06:16 2018	an23d1
* EV_NETLIST Version AMD.64 Release B-2008.09.SP5.HF4.26013 2015/05/03
*
*The following line needed for Star-CR:
*CRU_OPT (KEEP_ELEMENTS "^[CR]D")
*
*The following line needed for CDL:
*.BIPOLAR

* Hierarchy Level 0

* Top of hierarchy  cell=an23d1
.subckt an23d1 BN AN C GND VDD Y
M1 N_11 N_7 N_4 GND mn5  l=0.5u w=0.6u m=1
M2 N_12 N_6 N_11 GND mn5  l=0.5u w=0.6u m=1
M3 N_12 C GND GND mn5  l=0.5u w=0.6u m=1
M4 Y N_4 GND GND mn5  l=0.5u w=0.72u m=1
M5 N_7 AN GND GND mn5  l=0.5u w=0.6u m=1
M6 N_6 BN GND GND mn5  l=0.5u w=0.6u m=1
M7 N_4 N_7 VDD VDD mp5  l=0.42u w=0.62u m=1
M8 N_4 N_6 VDD VDD mp5  l=0.42u w=0.62u m=1
M9 N_4 C VDD VDD mp5  l=0.42u w=0.62u m=1
M10 Y N_4 VDD VDD mp5  l=0.42u w=0.96u m=1
M11 N_7 AN VDD VDD mp5  l=0.42u w=0.62u m=1
M12 N_6 BN VDD VDD mp5  l=0.42u w=0.62u m=1
.ends an23d1
* SPICE INPUT		Mon Sep 24 12:06:24 2018	an23d2
* EV_NETLIST Version AMD.64 Release B-2008.09.SP5.HF4.26013 2015/05/03
*
*The following line needed for Star-CR:
*CRU_OPT (KEEP_ELEMENTS "^[CR]D")
*
*The following line needed for CDL:
*.BIPOLAR

* Hierarchy Level 0

* Top of hierarchy  cell=an23d2
.subckt an23d2 C AN BN Y VDD GND
M1 N_5 BN GND GND mn5  l=0.5u w=0.6u m=1
M2 N_3 AN GND GND mn5  l=0.5u w=0.6u m=1
M3 N_12 N_5 N_11 GND mn5  l=0.5u w=0.6u m=1
M4 Y N_4 GND GND mn5  l=0.5u w=0.98u m=1
M5 N_11 N_3 N_4 GND mn5  l=0.5u w=0.6u m=1
M6 N_12 C GND GND mn5  l=0.5u w=0.6u m=1
M7 N_5 BN VDD VDD mp5  l=0.42u w=0.62u m=1
M8 N_3 AN VDD VDD mp5  l=0.42u w=0.62u m=1
M9 N_4 N_5 VDD VDD mp5  l=0.42u w=0.62u m=1
M10 Y N_4 VDD VDD mp5  l=0.42u w=1.28u m=1
M11 N_4 N_3 VDD VDD mp5  l=0.42u w=0.62u m=1
M12 N_4 C VDD VDD mp5  l=0.42u w=0.62u m=1
.ends an23d2
* SPICE INPUT		Mon Sep 24 14:01:53 2018	antenna
* EV_NETLIST Version AMD.64 Release B-2008.09.SP5.HF4.26013 2015/05/03
*
*The following line needed for Star-CR:
*CRU_OPT (KEEP_ELEMENTS "^[CR]D")
*
*The following line needed for CDL:
*.BIPOLAR

* Hierarchy Level 0

* Top of hierarchy  cell=antenna
.subckt antenna GND VDD A
D1 A VDD dppnw_5  area=0.5375p pj=3.36u
D2 GND A dnppw_5  area=0.4386p pj=2.9u
.ends antenna
* SPICE INPUT		Mon Sep 24 12:06:38 2018	aoi211d0
* EV_NETLIST Version AMD.64 Release B-2008.09.SP5.HF4.26013 2015/05/03
*
*The following line needed for Star-CR:
*CRU_OPT (KEEP_ELEMENTS "^[CR]D")
*
*The following line needed for CDL:
*.BIPOLAR

* Hierarchy Level 0

* Top of hierarchy  cell=aoi211d0
.subckt aoi211d0 C0 A1 A0 B0 VDD Y GND
M1 Y B0 GND GND mn5  l=0.5u w=0.6u m=1
M2 N_16 A0 GND GND mn5  l=0.5u w=0.6u m=1
M3 Y A1 N_16 GND mn5  l=0.5u w=0.6u m=1
M4 Y C0 GND GND mn5  l=0.5u w=0.6u m=1
M5 N_8 B0 N_10 VDD mp5  l=0.42u w=0.62u m=1
M6 N_8 A0 VDD VDD mp5  l=0.42u w=0.62u m=1
M7 N_8 A1 VDD VDD mp5  l=0.42u w=0.62u m=1
M8 Y C0 N_10 VDD mp5  l=0.42u w=0.62u m=1
.ends aoi211d0
* SPICE INPUT		Mon Sep 24 12:06:47 2018	aoi211d1
* EV_NETLIST Version AMD.64 Release B-2008.09.SP5.HF4.26013 2015/05/03
*
*The following line needed for Star-CR:
*CRU_OPT (KEEP_ELEMENTS "^[CR]D")
*
*The following line needed for CDL:
*.BIPOLAR

* Hierarchy Level 0

* Top of hierarchy  cell=aoi211d1
.subckt aoi211d1 C0 A1 A0 B0 VDD Y GND
M1 Y B0 GND GND mn5  l=0.5u w=0.72u m=1
M2 N_16 A0 GND GND mn5  l=0.5u w=0.72u m=1
M3 Y A1 N_16 GND mn5  l=0.5u w=0.72u m=1
M4 Y C0 GND GND mn5  l=0.5u w=0.72u m=1
M5 N_8 B0 N_10 VDD mp5  l=0.42u w=0.96u m=1
M6 VDD A0 N_8 VDD mp5  l=0.42u w=0.96u m=1
M7 N_8 A1 VDD VDD mp5  l=0.42u w=0.96u m=1
M8 Y C0 N_10 VDD mp5  l=0.42u w=0.96u m=1
.ends aoi211d1
* SPICE INPUT		Mon Sep 24 12:06:55 2018	aoi211d2
* EV_NETLIST Version AMD.64 Release B-2008.09.SP5.HF4.26013 2015/05/03
*
*The following line needed for Star-CR:
*CRU_OPT (KEEP_ELEMENTS "^[CR]D")
*
*The following line needed for CDL:
*.BIPOLAR

* Hierarchy Level 0

* Top of hierarchy  cell=aoi211d2
.subckt aoi211d2 A1 B0 C0 A0 Y VDD GND
M1 N_16 A0 GND GND mn5  l=0.5u w=0.98u m=1
M2 Y C0 GND GND mn5  l=0.5u w=0.98u m=1
M3 Y B0 GND GND mn5  l=0.5u w=0.98u m=1
M4 Y A1 N_16 GND mn5  l=0.5u w=0.98u m=1
M5 VDD A0 N_8 VDD mp5  l=0.42u w=1.28u m=1
M6 Y C0 N_10 VDD mp5  l=0.42u w=1.28u m=1
M7 N_8 B0 N_10 VDD mp5  l=0.42u w=1.28u m=1
M8 N_8 A1 VDD VDD mp5  l=0.42u w=1.28u m=1
.ends aoi211d2
* SPICE INPUT		Mon Sep 24 12:07:03 2018	aoi21d0
* EV_NETLIST Version AMD.64 Release B-2008.09.SP5.HF4.26013 2015/05/03
*
*The following line needed for Star-CR:
*CRU_OPT (KEEP_ELEMENTS "^[CR]D")
*
*The following line needed for CDL:
*.BIPOLAR

* Hierarchy Level 0

* Top of hierarchy  cell=aoi21d0
.subckt aoi21d0 A0 A1 B0 VDD GND Y
M1 GND B0 Y GND mn5  l=0.5u w=0.6u m=1
M2 N_13 A1 Y GND mn5  l=0.5u w=0.6u m=1
M3 N_13 A0 GND GND mn5  l=0.5u w=0.6u m=1
M4 Y B0 N_8 VDD mp5  l=0.42u w=0.62u m=1
M5 VDD A1 N_8 VDD mp5  l=0.42u w=0.62u m=1
M6 VDD A0 N_8 VDD mp5  l=0.42u w=0.62u m=1
.ends aoi21d0
* SPICE INPUT		Mon Sep 24 12:07:12 2018	aoi21d1
* EV_NETLIST Version AMD.64 Release B-2008.09.SP5.HF4.26013 2015/05/03
*
*The following line needed for Star-CR:
*CRU_OPT (KEEP_ELEMENTS "^[CR]D")
*
*The following line needed for CDL:
*.BIPOLAR

* Hierarchy Level 0

* Top of hierarchy  cell=aoi21d1
.subckt aoi21d1 A0 A1 B0 VDD GND Y
M1 GND B0 Y GND mn5  l=0.5u w=0.72u m=1
M2 N_13 A1 Y GND mn5  l=0.5u w=0.72u m=1
M3 N_13 A0 GND GND mn5  l=0.5u w=0.72u m=1
M4 Y B0 N_8 VDD mp5  l=0.42u w=0.96u m=1
M5 VDD A1 N_8 VDD mp5  l=0.42u w=0.96u m=1
M6 VDD A0 N_8 VDD mp5  l=0.42u w=0.96u m=1
.ends aoi21d1
* SPICE INPUT		Mon Sep 24 12:07:20 2018	aoi21d2
* EV_NETLIST Version AMD.64 Release B-2008.09.SP5.HF4.26013 2015/05/03
*
*The following line needed for Star-CR:
*CRU_OPT (KEEP_ELEMENTS "^[CR]D")
*
*The following line needed for CDL:
*.BIPOLAR

* Hierarchy Level 0

* Top of hierarchy  cell=aoi21d2
.subckt aoi21d2 A0 A1 B0 GND Y VDD
M1 GND B0 Y GND mn5  l=0.5u w=0.96u m=1
M2 N_13 A1 Y GND mn5  l=0.5u w=0.96u m=1
M3 N_13 A0 GND GND mn5  l=0.5u w=0.96u m=1
M4 Y B0 N_6 VDD mp5  l=0.42u w=1.28u m=1
M5 VDD A1 N_6 VDD mp5  l=0.42u w=1.28u m=1
M6 VDD A0 N_6 VDD mp5  l=0.42u w=1.28u m=1
.ends aoi21d2
* SPICE INPUT		Mon Sep 24 12:07:29 2018	aoi221d0
* EV_NETLIST Version AMD.64 Release B-2008.09.SP5.HF4.26013 2015/05/03
*
*The following line needed for Star-CR:
*CRU_OPT (KEEP_ELEMENTS "^[CR]D")
*
*The following line needed for CDL:
*.BIPOLAR

* Hierarchy Level 0

* Top of hierarchy  cell=aoi221d0
.subckt aoi221d0 A0 B1 A1 B0 C0 Y GND VDD
M1 Y C0 GND GND mn5  l=0.5u w=0.6u m=1
M2 N_12 B0 GND GND mn5  l=0.5u w=0.6u m=1
M3 N_13 A1 Y GND mn5  l=0.5u w=0.6u m=1
M4 Y B1 N_12 GND mn5  l=0.5u w=0.6u m=1
M5 N_13 A0 GND GND mn5  l=0.5u w=0.6u m=1
M6 Y C0 N_7 VDD mp5  l=0.42u w=0.62u m=1
M7 N_9 B0 VDD VDD mp5  l=0.42u w=0.62u m=1
M8 N_9 A1 N_7 VDD mp5  l=0.42u w=0.62u m=1
M9 N_9 B1 VDD VDD mp5  l=0.42u w=0.62u m=1
M10 N_7 A0 N_9 VDD mp5  l=0.42u w=0.62u m=1
.ends aoi221d0
* SPICE INPUT		Mon Sep 24 12:07:38 2018	aoi221d1
* EV_NETLIST Version AMD.64 Release B-2008.09.SP5.HF4.26013 2015/05/03
*
*The following line needed for Star-CR:
*CRU_OPT (KEEP_ELEMENTS "^[CR]D")
*
*The following line needed for CDL:
*.BIPOLAR

* Hierarchy Level 0

* Top of hierarchy  cell=aoi221d1
.subckt aoi221d1 B0 B1 A1 A0 C0 Y VDD GND
M1 Y C0 GND GND mn5  l=0.5u w=0.72u m=1
M2 N_13 A0 GND GND mn5  l=0.5u w=0.72u m=1
M3 N_13 A1 Y GND mn5  l=0.5u w=0.72u m=1
M4 Y B1 N_12 GND mn5  l=0.5u w=0.72u m=1
M5 N_12 B0 GND GND mn5  l=0.5u w=0.72u m=1
M6 Y C0 N_8 VDD mp5  l=0.42u w=0.96u m=1
M7 N_7 A0 N_8 VDD mp5  l=0.42u w=0.96u m=1
M8 N_7 A1 N_8 VDD mp5  l=0.42u w=0.96u m=1
M9 N_7 B1 VDD VDD mp5  l=0.42u w=0.96u m=1
M10 VDD B0 N_7 VDD mp5  l=0.42u w=0.96u m=1
.ends aoi221d1
* SPICE INPUT		Mon Sep 24 12:07:46 2018	aoi221d2
* EV_NETLIST Version AMD.64 Release B-2008.09.SP5.HF4.26013 2015/05/03
*
*The following line needed for Star-CR:
*CRU_OPT (KEEP_ELEMENTS "^[CR]D")
*
*The following line needed for CDL:
*.BIPOLAR

* Hierarchy Level 0

* Top of hierarchy  cell=aoi221d2
.subckt aoi221d2 A1 B1 B0 C0 A0 GND VDD Y
M1 N_13 A0 GND GND mn5  l=0.5u w=0.98u m=1
M2 Y C0 GND GND mn5  l=0.5u w=0.98u m=1
M3 N_12 B0 GND GND mn5  l=0.5u w=0.98u m=1
M4 Y B1 N_12 GND mn5  l=0.5u w=0.98u m=1
M5 N_13 A1 Y GND mn5  l=0.5u w=0.98u m=1
M6 N_9 A0 N_11 VDD mp5  l=0.42u w=1.28u m=1
M7 VDD B0 N_9 VDD mp5  l=0.42u w=1.28u m=1
M8 N_9 B1 VDD VDD mp5  l=0.42u w=1.28u m=1
M9 N_9 A1 N_11 VDD mp5  l=0.42u w=1.28u m=1
M10 Y C0 N_11 VDD mp5  l=0.42u w=1.28u m=1
.ends aoi221d2
* SPICE INPUT		Mon Sep 24 12:07:55 2018	aoi22d0
* EV_NETLIST Version AMD.64 Release B-2008.09.SP5.HF4.26013 2015/05/03
*
*The following line needed for Star-CR:
*CRU_OPT (KEEP_ELEMENTS "^[CR]D")
*
*The following line needed for CDL:
*.BIPOLAR

* Hierarchy Level 0

* Top of hierarchy  cell=aoi22d0
.subckt aoi22d0 B0 B1 A1 A0 GND VDD Y
M1 N_15 A0 GND GND mn5  l=0.5u w=0.6u m=1
M2 Y A1 N_15 GND mn5  l=0.5u w=0.6u m=1
M3 Y B1 N_14 GND mn5  l=0.5u w=0.6u m=1
M4 GND B0 N_14 GND mn5  l=0.5u w=0.6u m=1
M5 N_8 A0 VDD VDD mp5  l=0.42u w=0.62u m=1
M6 N_8 A1 VDD VDD mp5  l=0.42u w=0.62u m=1
M7 N_8 B1 Y VDD mp5  l=0.42u w=0.62u m=1
M8 N_8 B0 Y VDD mp5  l=0.42u w=0.62u m=1
.ends aoi22d0
* SPICE INPUT		Mon Sep 24 12:08:03 2018	aoi22d1
* EV_NETLIST Version AMD.64 Release B-2008.09.SP5.HF4.26013 2015/05/03
*
*The following line needed for Star-CR:
*CRU_OPT (KEEP_ELEMENTS "^[CR]D")
*
*The following line needed for CDL:
*.BIPOLAR

* Hierarchy Level 0

* Top of hierarchy  cell=aoi22d1
.subckt aoi22d1 B0 B1 A1 A0 GND VDD Y
M1 N_11 A0 GND GND mn5  l=0.5u w=0.72u m=1
M2 Y A1 N_11 GND mn5  l=0.5u w=0.72u m=1
M3 Y B1 N_10 GND mn5  l=0.5u w=0.72u m=1
M4 GND B0 N_10 GND mn5  l=0.5u w=0.72u m=1
M5 VDD A0 N_8 VDD mp5  l=0.42u w=0.96u m=1
M6 N_8 A1 VDD VDD mp5  l=0.42u w=0.96u m=1
M7 N_8 B1 Y VDD mp5  l=0.42u w=0.96u m=1
M8 N_8 B0 Y VDD mp5  l=0.42u w=0.96u m=1
.ends aoi22d1
* SPICE INPUT		Mon Sep 24 12:08:12 2018	aoi22d2
* EV_NETLIST Version AMD.64 Release B-2008.09.SP5.HF4.26013 2015/05/03
*
*The following line needed for Star-CR:
*CRU_OPT (KEEP_ELEMENTS "^[CR]D")
*
*The following line needed for CDL:
*.BIPOLAR

* Hierarchy Level 0

* Top of hierarchy  cell=aoi22d2
.subckt aoi22d2 B0 B1 A1 A0 GND VDD Y
M1 N_11 A0 GND GND mn5  l=0.5u w=0.98u m=1
M2 Y A1 N_11 GND mn5  l=0.5u w=0.98u m=1
M3 Y B1 N_10 GND mn5  l=0.5u w=0.98u m=1
M4 GND B0 N_10 GND mn5  l=0.5u w=0.98u m=1
M5 VDD A0 N_7 VDD mp5  l=0.42u w=1.28u m=1
M6 N_7 A1 VDD VDD mp5  l=0.42u w=1.28u m=1
M7 N_7 B1 Y VDD mp5  l=0.42u w=1.28u m=1
M8 N_7 B0 Y VDD mp5  l=0.42u w=1.28u m=1
.ends aoi22d2
* SPICE INPUT		Mon Sep 24 12:08:21 2018	aoi31d0
* EV_NETLIST Version AMD.64 Release B-2008.09.SP5.HF4.26013 2015/05/03
*
*The following line needed for Star-CR:
*CRU_OPT (KEEP_ELEMENTS "^[CR]D")
*
*The following line needed for CDL:
*.BIPOLAR

* Hierarchy Level 0

* Top of hierarchy  cell=aoi31d0
.subckt aoi31d0 B0 A2 A0 A1 Y VDD GND
M1 N_11 A1 N_10 GND mn5  l=0.5u w=0.6u m=1
M2 N_10 A0 GND GND mn5  l=0.5u w=0.6u m=1
M3 N_11 A2 Y GND mn5  l=0.5u w=0.6u m=1
M4 GND B0 Y GND mn5  l=0.5u w=0.6u m=1
M5 VDD A1 N_9 VDD mp5  l=0.42u w=0.62u m=1
M6 N_9 A0 VDD VDD mp5  l=0.42u w=0.62u m=1
M7 VDD A2 N_9 VDD mp5  l=0.42u w=0.62u m=1