//*Spectre Model Format
simulator lang=spectre  insensitive=yes

// *
// * no part of this file can be released without the consent of smic.
// *
// ************************************************************************************************
// *    smic 0.11um mixed signal 1p8m(1p7m, 1p6m, 1p5m) 1.2v/3.3v spice model (for Spectre only)  *
// ************************************************************************************************
// *
// * release version    : 1.24
// *
// * release date       : 1/16/2015
// *
// * simulation tool    : Cadence spectre V10.1.1
// *
// * model name         :
// *   vertical pnp bjt :
// *
// *        *--------------------------------------*-----------*
// *        |  p+/nwell/psub bjt type  |   1.2v    |   3.3v    |
// *        |==================================================|
// *        | emitter area: 10*10 um^2 |pnp12a100  |pnp33a100  |
// *        |--------------------------------------------------|
// *        | emitter area: 5*5 um^2   |pnp12a25   |pnp33a25   |
// *        |--------------------------------------------------|
// *        | emitter area: 2*2 um^2   |pnp12a4    |pnp33a4    |
// *        *--------------------------------------* ----------*
// *
// *   vertical npn bjt :
// *        *-------------------------------------------------------*
// *        |  n+/pwell/deepnwell bjt type  |   1.2v    |   3.3v    |
// *        |=======================================================|
// *        | emitter area: 20*20 um^2      | npn12a400 |    na     |
// *        |-------------------------------------------------------|
// *        | emitter area: 15*15 um^2      | npn12a225 |    na     |
// *        *-------------------------------------------------------*
// *        | emitter area: 10*10 um^2      | npn12a100 | npn33a100 |
// *        |-------------------------------------------------------|
// *        | emitter area: 5*5 um^2        | npn12a25  | npn33a25  |
// *        |-------------------------------------------------------|
// *        | emitter area: 2*2 um^2        | npn12a4   | npn33a4   |
// *        *-------------------------------------------*-----------*
// *
// * the valid temperature range is from -40c to 125c
// *
// ***********************************************************************************
// *           1.2v  p+/nwell/psub bipolar model (emitter area=10x10um^2)    *
// ***********************************************************************************
// *
model pnp12a100 bjt type=pnp
+vaf = 400.00 ikf = 2.00e-03 
+ise = 5.50e-17 ne = 1.5 br = 8.00e-03 
+nr = 1.01 var = 25.0 ikr = 2.09e-03 
+isc = 5.00e-17 nc = 1.5 rb = 48.0 
+irb = 2.50e-03 rbm = 2.0 re = 2.5 
+rc = 11.11 xti = 3.0 eg = 1.16 
+tnom = 25.0 nkf = 0.5 tlev = 0 
+tlevc = 1 xtb = 0.00 tbf1 = 4.7e-03 
+tbf2 = -1.0e-06 tbr1 = -8.5e-04 tbr2 = 8.50e-06 
+tikf1 = -1.0e-02 tikf2 = 6.20e-05 tnf2 = 1.6549e-07 
+tnr2 = 2.00e-07 
+ctc = 2.87e-3 cte = 8.72e-4 
+vje = 0.785 mje = 0.431 
+vjc = 0.553 mjc = 0.375 
+tvjc = 0.0021353 tvje = 0.0012231 
+is = 1.55e-17+dis_pnp12a100 
+bf = 2.05+dbf_pnp12a100 
+nf = 1.01+dnf_pnp12a100 
+cjc = 6.82e-14+dcjc_pnp12a100 
+cje = 1.25e-13+dcje_pnp12a100 
// *
// ***********************************************************************************
// *            1.2v  p+/nwell/psub bipolar model (emitter area=5x5um^2)     *
// ***********************************************************************************
// *
model pnp12a25 bjt type=pnp
+vaf = 553.93 ikf = 1.10e-03 
+ise = 1.50e-17 ne = 1.5 br = 3.18e-03 
+nr = 1.01 var = 25.0 ikr = 2.09e-03 
+isc = 5.00e-17 nc = 1.5 rb = 62.0 
+irb = 2.50e-03 rbm = 2.0 re = 2.5 
+rc = 11.11 xti = 3.0 eg = 1.16 
+tnom = 25.0 nkf = 0.5 tlev = 0 
+tlevc = 1 xtb = 0.00 tbf1 = 0.0049 
+tbf2 = 3.5e-07 tbr1 = -0.00120 tbr2 = 0.0000140 
+tikf1 = -0.0085 tikf2 = 4.80e-05 
+tnf2 = 5.0015e-07 tnr2 = 4.00e-07 
+ctc = 2.87e-3 cte = 8.72e-4 
+tvjc = 0.0021353 tvje = 0.0012231 
+vje = 0.785 mje = 0.431 
+vjc = 0.553 mjc = 0.375 
+is = 4.20e-18+dis_pnp12a25 
+bf = 2.025+dbf_pnp12a25 
+nf = 1.01+dnf_pnp12a25 
+cje = 3.20e-14+dcje_pnp12a25 
+cjc = 3.98e-14+dcjc_pnp12a25 
// *
// ***********************************************************************************
// *            1.2v  p+/nwell/psub bipolar model (emitter area=2x2um^2)     *
// ***********************************************************************************
// *
model pnp12a4 bjt type=pnp
+vaf = 553.93 ikf = 5.00e-04 
+ise = 7.00e-18 ne = 1.5 br = 8.75e-04 
+nr = 1.016 var = 21.0 ikr = 2.09e-03 
+isc = 5.00e-17 nc = 1.5 rb = 110.0 
+irb = 2.00e-03 rbm = 2.0 re = 3.5 
+rc = 11.00 xti = 3.0 eg = 1.16 
+tnom = 25.0 nkf = 0.5 tlev = 0 
+tlevc = 1 xtb = 0.00 tbf1 = 5.55e-03 
+tbf2 = 8.00e-07 tbr1 = -1.40e-03 tbr2 = 1.22e-05 
+tikf1 = -5.25e-03 tikf2 = 2.00e-05 tnf1 = 9.3769e-05 
+tnf2 = 2.1422e-07 tnr1 = 9.104e-05 tnr2 = 2.5525e-07 
+ctc = 2.87e-3 cte = 8.72e-4 
+tvjc = 0.0021353 tvje = 0.0012231 
+vje = 0.785 mje = 0.431 
+vjc = 0.553 mjc = 0.375 
+is = 9.30e-19+dis_pnp12a4 
+bf = 1.91+dbf_pnp12a4 
+nf = 1.015+dnf_pnp12a4 
+cje = 5.48e-15+dcje_pnp12a4 
+cjc = 2.58e-14+dcjc_pnp12a4 
// *
// ***********************************************************************************
// *           3.3v  p+/nwell/psub bipolar model (emitter area=10x10um^2)    *
// ***********************************************************************************
// *
model pnp33a100 bjt type=pnp
+vaf = 553.93 ikf = 0.0024 
+ise = 8.1e-017 ne = 1.5 br = 0.00804 
+nr = 1.0 var = 32 ikr = 0.00209 
+isc = 5e-017 nc = 1.5 rb = 42.0 
+irb = 0.00236 rbm = 1.947 re = 2.502 
+rc = 11.11 xti = 3.0 eg = 1.16 
+tnom = 25.0 nkf = 0.5 tlev = 0 
+tlevc = 1 xtb = 0.00 tbf1 = 0.0048 
+tbf2 = 2.158e-006 tbr1 = -0.00062 tbr2 = 7.00e-06 
+tikf1 = -0.001583 tikf2 = -9.154e-006 tikr1 = 0 
+tne1 = 1.1e-005 tnf1 = -5.5e-005 
+ctc = 2.34e-003 cte = 7.80e-004 
+vje = 0.814 mje = 0.378 
+vjc = 0.549 mjc = 0.384 
+tvjc = 0.0021353 tvje = 1.50e-003 
+is = 1.0e-017+dis_pnp33a100 
+bf = 1.97+dbf_pnp33a100 
+nf = 1.005+dnf_pnp33a100 
+cjc = 6.82e-014+dcjc_pnp33a100 
+cje = 1.24e-013+dcje_pnp33a100 
// *
// ***********************************************************************************
// *            3.3v  p+/nwell/psub bipolar model (emitter area=5x5um^2)     *
// ***********************************************************************************
// *
model pnp33a25 bjt type=pnp
+vaf = 553.93 ikf = 0.001846 
+ise = 2.55e-017 ne = 1.5 br = 0.00321 
+nr = 1 var = 30 ikr = 0.0021 
+isc = 5e-017 nc = 1.5 rb = 75 
+irb = 0.00196 rbm = 1.1 re = 1.078 
+rc = 11.11 xti = 3.0 eg = 1.16 
+tnom = 25.0 nkf = 0.5 tlev = 0 
+tlevc = 1 xtb = 0.00 tbf1 = 0.00515 
+tbf2 = 5.213e-006 tbr1 = -0.00065 tbr2 = 7.5e-006 
+tikf1 = -0.003423 tikf2 = -7.692e-006 tikr1 = 0 
+tne1 = 1.34e-006 tnf1 = -5.0e-005 
+ctc = 0.00234 cte = 0.00078 
+vje = 0.814 mje = 0.378 
+vjc = 0.549 mjc = 0.384 
+tvjc = 0.0021353  tvje = 0.0015 
+is = 2.8e-018+dis_pnp33a25 
+bf = 1.895+dbf_pnp33a25 
+nf = 1.007+dnf_pnp33a25 
+cjc = 3.98e-014+dcjc_pnp33a25 
+cje = 3.14e-014+dcje_pnp33a25 
// *
// ***********************************************************************************
// *            3.3v  p+/nwell/psub bipolar model (emitter area=2x2um^2)     *
// ***********************************************************************************
// *
model pnp33a4 bjt type=pnp
+vaf = 550.0 ikf = 0.001076 
+ise = 1.255e-017 ne = 1.5 br = 0.000875 
+nr = 0.995 var = 26 ikr = 0.00209 
+isc = 5e-017 nc = 1.5 rb = 118 
+irb = 0.00184 rbm = 1.2 re = 4.374 
+rc = 11.11 xti = 3.0 eg = 1.16 
+tnom = 25.0 nkf = 0.5 tlev = 0 
+tlevc = 1 xtb = 0.00 tbf1 = 0.005687 
+tbf2 = 9.093e-006 tbr1 = -0.001381 tbr2 = 1.287e-005 
+tikf1 = -0.001082 tikf2 = -2.3e-005 tikr1 = 0 
+tne1 = 1.2e-006 tnf1 = -5.0e-006 
+ctc = 2.34e-003 cte = 7.80e-004 
+vje = 0.814 mje = 0.378 
+vjc = 0.549 mjc = 0.384 
+tvjc = 0.0021353 tvje = 1.50e-003 
+is = 6.7e-019+dis_pnp33a4 
+bf = 1.707+dbf_pnp33a4 
+nf = 1.016+dnf_pnp33a4 
+cjc = 2.58e-014+dcjc_pnp33a4 
+cje = 5.25e-015+dcje_pnp33a4 
// *
// ***********************************************************************************
// *    1.2v vertival n+/pwell/deepnwell bipolar model (emitter area=20x20um^2)       *
// ***********************************************************************************
// *
model npn12a400 bjt type=npn
+vaf = 79.186 ikf = 0.066 
+ise = 6.99e-15 ne = 1.445 br = 0.63 
+nr = 1.007 var = 54.8349 ikr = 0.0885 
+isc = 7.94e-16 nc = 1.3845 rb = 80.4693 
+irb = 5.36e-03 rbm = 1.8414 re = 2.3635 
+rc = 1.2625 xti = 3.0 eg = 1.16 
+vje = 0.791 mje = 0.458 
+vjc = 0.656 mjc = 0.348 
+tnom = 25.0 nkf = 0.5 tlev = 0 
+tlevc = 1 xtb = 0.00 tbf1 = 4.85e-03 
+tbf2 = -2.00e-05 tbr1 = 3.00e-04 tikf1 = 6.37e-03 
+tikf2 = 5.27e-05 tikr1 = 1.00e-03 tne1 = 1.86e-03 
+tne2 = 2.62e-05 tnf1 = 1.00e-05 tnr2 = 5.00e-07 
+trb1 = 3.52e-03 
+ctc = 0.0012169 cte = 0.000759 tvjc = 0.001722 
+tvje = 0.00112 
+is = 8.15e-17+dis_npn12a400 
+bf = 8.38+dbf_npn12a400 
+nf = 1.005+dnf_npn12a400 
+cjc = 4.18E-13+dcjc_npn12a400 
+cje = 5.26E-13+dcje_npn12a400 
// *
// ***********************************************************************************
// *    1.2v vertival n+/pwell/deepnwell bipolar model (emitter area=15x15um^2)      *
// ***********************************************************************************
// *
model npn12a225 bjt type=npn
+vaf = 79.186 ikf = 0.056 
+ise = 3.50e-15 ne = 1.445 br = 0.533 
+nr = 1.007 var = 54.8349 ikr = 0.0285 
+isc = 5.94e-16 nc = 1.3845 rb = 80.4693 
+irb = 5.36e-03 rbm = 1.8414 re = 5.3635 
+rc = 3.2625 xti = 3.0 eg = 1.16 
+vje = 0.791 mje = 0.458 
+vjc = 0.656 mjc = 0.348 
+tnom = 25.0 nkf = 0.5 tlev = 0 
+tlevc = 1 xtb = 0.00 tbf1 = 5.00e-03 
+tbf2 = -1.50e-05 tbr1 = 3.00e-04 tikf1 = -2.00e-03 
+tikr1 = 1.00e-03 tne1 = 1.86e-03 tne2 = 2.62e-05 
+tnf1 = 1.20e-05 tnr1 = 5.00e-06 tnr2 = 6.00e-07 
+trb1 = 3.52e-03 
+ctc = 0.0012169 cte = 0.000759 tvjc = 0.001722 
+tvje = 0.00112 
+is = 4.90e-17+dis_npn12a225 
+bf = 8.15+dbf_npn12a225 
+nf = 1.005+dnf_npn12a225 
+cjc = 2.73e-13+dcjc_npn12a225 
+cje = 2.96e-13+dcje_npn12a225 
// *
// ***********************************************************************************
// *    1.2v vertival n+/pwell/deepnwell bipolar model (emitter area=10x10um^2)       *
// ***********************************************************************************
// *
model npn12a100 bjt type=npn
+vaf = 77.602 ikf = 0.0677 
+ise = 3.9794e-15 ne = 1.6064 br = 0.3929 
+nr = 1.0216 var = 50.0 ikr = 0.0428 
+isc = 2.9753e-16 nc = 1.33 rb = 49.707 
+irb = 5.36e-03 rbm = 1.8414 re = 10.0009 
+rc = 3.2625 xti = 3.0 eg = 1.16 
+tnom = 25.0 nkf = 0.5 tlev = 0 
+tlevc = 1 xtb = 0.00 tbf1 = 5.8873e-03 
+tbr1 = 3.9523e-04 tikf1 = -5.2308e-03 tne1 = 2.4152e-04 
+tnf1 = 6.00e-06 tnf2 = -7.85e-07 tnr1 = -4.50e-05 
+trb1 = 7.047e-03 trb2 = 1.00e-06 
+trm1 = 0.00 trm2 = 0.00 
+ctc = 0.0012169 cte = 0.000759
+vje = 0.791 mje = 0.458 
+vjc = 0.656 mjc = 0.348  
+tvjc = 0.001722 tvje = 0.00112 
+is = 3.1003e-17+dis_npn12a100 
+bf = 7.72+dbf_npn12a100 
+nf = 1.021+dnf_npn12a100 
+cje = 1.32e-13+dcje_npn12a100 
+cjc = 1.58e-13+dcjc_npn12a100 
// *
// ***********************************************************************************
// *    1.2v vertival n+/pwell/deepnwell bipolar model (emitter area=5x5um^2)       *
// ***********************************************************************************
// *
model npn12a25 bjt type=npn
+vaf = 77.602 ikf = 0.0201 
+ise = 7.1448e-17 ne = 1.367 br = 0.2059 
+nr = 1.02 var = 50.0 ikr = 0.0428 
+isc = 1.0894e-16 nc = 1.3846 rb = 58.4046 
+irb = 5.36e-03 rbm = 1.8414 re = 18.5 
+rc = 0.8 xti = 3.0 eg = 1.16 
+tnom = 25.0 nkf = 0.5 tlev = 0 
+tlevc = 1 xtb = 0.00 tbf1 = 5.9124e-03 
+tbr1 = 2.8544e-04 tikf1 = -5.0362e-03 tne1 = 3.192e-04 
+tnf1 = 6.00e-06 tnf2 = -7.85e-07 tnr1 = -6.75e-05 
+trb1 = 5.4208e-03 trb2 = 1.00e-06 
+trm1 = 0.00 trm2 = 0.00 
+ctc = 0.0012169 cte = 0.000759
+vje = 0.791 mje = 0.458 
+vjc = 0.656 mjc = 0.348  
+tvjc = 0.001722 tvje = 0.00112 
+is = 8.317e-18+dis_npn12a25 
+bf = 7.916+dbf_npn12a25 
+nf = 1.019+dnf_npn12a25 
+cje = 3.29e-14+dcje_npn12a25 
+cjc = 7.49e-14+dcjc_npn12a25 
// *
// ***********************************************************************************
// *    1.2v vertival n+/pwell/deepnwell bipolar model (emitter area=2x2um^2)       *
// ***********************************************************************************
// *
model npn12a4 bjt type=npn
+vaf = 89.2423 ikf = 4.0271e-03 
+ise = 2.605e-17 ne = 1.395 br = 0.0699 
+nr = 1.02 var = 47.5 ikr = 0.0428 
+isc = 1.0383e-16 nc = 1.3846 rb = 93.75 
+irb = 5.36e-03 rbm = 1.8414 re = 41.7325 
+rc = 0.8 xti = 3.0 eg = 1.16 
+tnom = 25.0 nkf = 0.5 tlev = 0 
+tlevc = 1 xtb = 0.00 tbf1 = 6.458e-03 
+tbr1 = 1.9981e-04 tikf1 = -4.4822e-03 tne1 = 3.192e-04 
+tnf1 = 6.00e-06 tnf2 = -7.85e-07 tnr1 = -6.75e-05 
+trb1 = 5.4208e-03 trb2 = 1.00e-06 
+trm1 = 0.00 trm2 = 0.00 
+ctc = 0.0012169 cte = 0.000759
+vje = 0.791 mje = 0.458 
+vjc = 0.656 mjc = 0.348  
+tvjc = 0.001722 tvje = 0.00112 
+is = 1.6833e-18+dis_npn12a4 
+bf = 7.975+dbf_npn12a4 
+nf = 1.02+dnf_npn12a4 
+cje = 5.26e-15+dcje_npn12a4 
+cjc = 3.96e-14+dcjc_npn12a4 
// *
// ***********************************************************************************
// *    3.3v vertival n+/pwell/deepnwell bipolar model (emitter area=10x10um^2)       *
// ***********************************************************************************
// *
model npn33a100 bjt type=npn
+vaf = 122.2577 ikf = 0.072 
+ise = 2.0996e-17 ne = 1.2679 br = 0.272 
+nr = 1.02 var = 70.0 ikr = 0.0911 
+isc = 5.3835e-16 nc = 1.3984 rb = 49.707 
+irb = 5.36e-03 rbm = 1.8414 re = 9.0633 
+rc = 3.2625 xti = 3.0 eg = 1.16 
+tnom = 25.0 nkf = 0.5 tlev = 0 
+tlevc = 1 xtb = 0.00 tbf1 = 5.8292e-03 
+tbr1 = 2.70e-04 tikf1 = -4.92e-03 tne1 = 5.475e-04 
+tne2 = 2.50e-06 
+tnf1 = 6.09e-05 tnf2 = -1.5602e-06 tnr1 = -7.865e-05 
+trb1 = 6.4947e-03 trb2 = 1.00e-06 
+trm1 = 0.00 trm2 = 0.00 
+ctc = 0.0012169 cte = 0.00095 
+tvjc = 0.001722 tvje = 0.0017 
+vje = 0.653 mje = 0.267 
+vjc = 0.656 mjc = 0.348
+is = 2.2019e-17+dis_npn33a100 
+bf = 5.875+dbf_npn33a100 
+nf = 1.02+dnf_npn33a100 
+cjc = 1.58e-013+dcjc_npn33a100 
+cje = 9.00e-014+dcje_npn33a100 
// *
// ***********************************************************************************
// *    3.3v vertival n+/pwell/deepnwell bipolar model (emitter area=5x5um^2)       *
// ***********************************************************************************
// *
model npn33a25 bjt type=npn
+vaf = 125.3 ikf = 0.0277 
+ise = 2.6766e-17 ne = 1.35 br = 0.1441 
+nr = 1.02 var = 63.0 ikr = 0.0911 
+isc = 1.0565e-16 nc = 1.3725 rb = 60.0 
+irb = 5.36e-03 rbm = 1.8414 re = 15.3886 
+rc = 1.6313 xti = 3.0 eg = 1.16 
+tnom = 25.0 nkf = 0.5 tlev = 0 
+tlevc = 1 xtb = 0.00 tbf1 = 6.1119e-03 
+tbr1 = 2.89e-04 tikf1 = -5.904e-03 tne1 = 5.475e-04 
+tne2 = 2.50e-06 
+tnf1 = 6.09e-05 tnf2 = -1.5602e-06 tnr1 = -7.8652e-05 
+trb1 = 6.4947e-03 trb2 = 1.00e-06 
+trm1 = 0.00 trm2 = 0.00 
+ctc = 0.0012169 cte = 0.00095 
+tvjc = 0.001722 tvje = 0.0017 
+vje = 0.653 mje = 0.267 
+vjc = 0.656 mjc = 0.348
+is = 5.9661e-18+dis_npn33a25 
+bf = 5.952+dbf_npn33a25 
+nf = 1.02+dnf_npn33a25 
+cjc = 7.49e-014+dcjc_npn33a25 
+cje = 2.25e-014+dcje_npn33a25 
// *
// ***********************************************************************************
// *    3.3v vertival n+/pwell/deepnwell bipolar model (emitter area=2x2um^2)       *
// ***********************************************************************************
// *
model npn33a4 bjt type=npn
+vaf = 132.818 ikf = 7.7992e-03 
+ise = 3.3311e-17 ne = 1.4728 br = 0.0508 
+nr = 1.02 var = 55.5 ikr = 0.0911 
+isc = 9.1917e-17 nc = 1.3725 rb = 68.75 
+irb = 5.36e-03 rbm = 1.8414 re = 33.4628 
+rc = 0.8238 xti = 3.0 eg = 1.16 
+tnom = 25.0 nkf = 0.5 tlev = 0 
+tlevc = 1 xtb = 0.00 tbf1 = 6.7342e-03 
+tbr1 = 3.0345e-04 tikf1 = -6.1402e-03 tne1 = 9.2125e-04 
+tne2 = 9.275e-06 
+tnf1 = 9.135e-05 tnf2 = -1.5602e-06 tnr1 = -5.5057e-05 
+trb1 = 6.4947e-03 trb2 = 1.00e-06 
+trm1 = 0.00 trm2 = 0.00 
+ctc = 0.0012169 cte = 0.00095 
+tvjc = 0.001722 tvje = 0.0017 
+vje = 0.653 mje = 0.267 
+vjc = 0.656 mjc = 0.348
+is = 1.2209e-18+dis_npn33a4 
+bf = 6.01+dbf_npn33a4 
+nf = 1.02+dnf_npn33a4 
+cjc = 3.96e-014+dcjc_npn33a4 
+cje = 3.6e-015+dcje_npn33a4 
// *
