//*Spectre Lib Format
simulator lang=spectre  insensitive=yes

library ms011_ms013s_io33_rf_v1p14
// * This file contains 0.11um RFMOS, MIM Capacitor, MOM Capacitor, MOS Varactor, SAB resistor, HRP resistor, Top metla resistor and Spiral/Differential Inductor corner model parameters.
// * This file should be used with the model/circuit parameter files:
// * 'ms011_ms013s_io33_rf_mos_v1p14_spe.ckt', 'ms011_ms013s_io33_rf_mom_v1p14_spe.ckt', 'ms011_ms013s_io33_rf_res_v1p14_spe.ckt', 'ms011_ms013s_io33_rf_TM2_res_v1p14_spe.ckt',
// * 'ms011_ms013s_io33_rf_mim_v1p14_spe.ckt', 'ms011_ms013s_io33_rf_var_v1p14_spe.ckt','ms011_ms013s_io33_rf_spir_ind_v1p14_spe.ckt', 'ms011_ms013s_io33_rf_diff_ind_v1p14_spe.ckt'
// * 'ms011_ms013s_io33_rf_3T_diff_ind_v1p14_spe.ckt','ms011_ms013s_io33_rf_3Tdiff_1talpa_psub_v1p14.ckt','ms011_ms013s_io33_rf_3Tdiff_1talpa_v1p14.ckt'.
//* 'ms011_ms013s_io33_diff_ind_3t_rf_pgs_n_v1p14.ckt','ms011_ms013s_io33_diff_ind_3t_rf_pgs_psub_n_v1p14.ckt','ms011_ms013s_io33_diff_ind_rf_pgs_n_v1p14.ckt','ms011_ms013s_io33_diff_ind_rf_pgs_psub_n_v1p14.ckt',
//* 'ms011_ms013s_io33_ind_rf_pgs_n_v1p14.ckt','ms011_ms013s_io33_ind_rf_pgs_psub_n_v1p14.ckt'
// * No part of this file can be released without the consent of SMIC.
// *
// ********************
// * MOS Corner model ***************
// ********************
section mos_tt
SetOption1 options  gmin=1e-14 scale=0.9
parameters sigma_mis_a_rf = 0
parameters sigma_mis_b_rf = 0
parameters sigma_mis_c_rf = 0
parameters sigma_mis_d_rf = 0
statistics {

    mismatch {

     vary sigma_mis_a_rf dist=gauss std=1/1
     vary sigma_mis_b_rf dist=gauss std=1/1
     vary sigma_mis_c_rf dist=gauss std=1/1
     vary sigma_mis_d_rf dist=gauss std=1/1

           }
      }


// *1.2V core NMOS
parameters dtox_n12_rf = 0
parameters dxl_n12_rf = 0
parameters dxw_n12_rf = 0
parameters dvth_n12_rf = 0
parameters dcj_n12_rf = 0
parameters dcjsw_n12_rf = 0
parameters du0_n12_rf = 0
parameters dnlx_n12_rf = 0
parameters dlu0_n12_rf = 0
parameters dlvsat_n12_rf = 0
parameters dk3_n12_rf = 0
parameters dpvth0_n12_rf = 0
parameters dpu0_n12_rf = 0
parameters dagidl_n12_rf = 0

// *1.2V core PMOS
parameters dtox_p12_rf = 0
parameters dxl_p12_rf = 0
parameters dxw_p12_rf = 0
parameters dvth_p12_rf = 0	
parameters dcj_p12_rf = 0
parameters dcjsw_p12_rf = 0
parameters du0_p12_rf = 0
parameters dnlx_p12_rf = 0
parameters dlu0_p12_rf = 0
parameters dlvsat_p12_rf = 0
parameters dwu0_p12_rf = 0
parameters dpvth0_p12_rf = 0
parameters dpu0_p12_rf = 0
parameters dpvsat_p12_rf = 0
parameters dagidl_p12_rf = 0

// *3.3v io nmos
parameters dtox_n33_rf = 0
parameters dxl_n33_rf = 0
parameters dxw_n33_rf = 0
parameters dvth_n33_rf = 0
parameters dwvth0_n33_rf = 0
parameters dpvth0_n33_rf = 0
parameters dlvth0_n33_rf = 0
parameters du0_n33_rf = 0
parameters dwu0_n33_rf = 0
parameters dcj_n33_rf = 0
parameters dcjsw_n33_rf = 0
parameters dagidl_n33_rf = 0
parameters dlu0_n33_rf = 0
parameters dlvsat_n33_rf = 0
parameters dpu0_n33_rf = 0
// *3.3v io pmos
parameters dtox_p33_rf = 0
parameters dxl_p33_rf = 0
parameters dxw_p33_rf = 0
parameters dvth_p33_rf = 0
parameters dwvth0_p33_rf = 0
parameters dpvth0_p33_rf = 0
parameters dlvth0_p33_rf = 0
parameters du0_p33_rf = 0
parameters dwu0_p33_rf = 0
parameters dcj_p33_rf = 0
parameters dcjsw_p33_rf = 0
parameters dpu0_p33_rf = 0
parameters dlu0_p33_rf = 0
parameters dlvsat_p33_rf = 0
parameters dagidl_p33_rf = 0
parameters dlagidl_p33_rf = 0
parameters dpvsat_p33_rf = 0


include "ms011_ms013s_io33_rf_mos_v1p14_spe.ckt"
endsection mos_tt

section mos_ff
SetOption1 options  gmin=1e-14 scale=0.9
parameters sigma_mis_a_rf = 0
parameters sigma_mis_b_rf = 0
parameters sigma_mis_c_rf = 0
parameters sigma_mis_d_rf = 0
statistics {

    mismatch {

     vary sigma_mis_a_rf dist=gauss std=1/1
     vary sigma_mis_b_rf dist=gauss std=1/1
     vary sigma_mis_c_rf dist=gauss std=1/1
     vary sigma_mis_d_rf dist=gauss std=1/1

           }
      }

// *1.2V core NMOS
parameters dtox_n12_rf = -4e-11
parameters dxl_n12_rf = -7.00e-9
parameters dxw_n12_rf = 1.5e-8
parameters dvth_n12_rf = -0.0045
parameters dcj_n12_rf = -6.575e-5
parameters dcjsw_n12_rf = -5.2e-12
parameters du0_n12_rf = 2.0e-4
parameters dnlx_n12_rf = -7.0e-9
parameters dlu0_n12_rf = 9.0e-11
parameters dlvsat_n12_rf = 0
parameters dk3_n12_rf = -0.15
parameters dpvth0_n12_rf = -1.7e-15
parameters dpu0_n12_rf = -6.0e-17
parameters dagidl_n12_rf = 3.1e-011

// *1.2V core PMOS
parameters dtox_p12_rf = -4e-11
parameters dxl_p12_rf = -7.00e-9
parameters dxw_p12_rf = 1.5e-8
parameters dvth_p12_rf = 0.020
parameters dcj_p12_rf = -6.1e-5
parameters dcjsw_p12_rf = -3.765e-12
parameters du0_p12_rf = 1.2e-4
parameters dnlx_p12_rf = -2.1e-8
parameters dlu0_p12_rf = 0
parameters dlvsat_p12_rf = 0
parameters dwu0_p12_rf = 0
parameters dpvth0_p12_rf = 2.6e-15
parameters dpu0_p12_rf = -7e-17
parameters dpvsat_p12_rf = -3e-9
parameters dagidl_p12_rf = 3.1e-012

// *3.3v io nmos
parameters dtox_n33_rf = -3e-010
parameters dxl_n33_rf = -1.8e-8
parameters dxw_n33_rf = 2.0e-8
parameters dvth_n33_rf = -0.0358
parameters dwvth0_n33_rf = -7.4e-009
parameters dpvth0_n33_rf = 6.4e-016
parameters dlvth0_n33_rf = -3.3633e-009
parameters du0_n33_rf = 0.0005
parameters dwu0_n33_rf = 0
parameters dcj_n33_rf = -4.500e-5
parameters dcjsw_n33_rf = -6.35e-12
parameters dagidl_n33_rf = 4.5e-13
parameters dlu0_n33_rf = 7.4426e-010
parameters dlvsat_n33_rf = 0.0006
parameters dpu0_n33_rf = 0
// *3.3v io pmos
parameters dtox_p33_rf = -3e-010
parameters dxl_p33_rf = -1.8e-8
parameters dxw_p33_rf = 2.0e-8
parameters dvth_p33_rf = 0.0277
parameters dwvth0_p33_rf = 1.17e-008
parameters dpvth0_p33_rf = -1.52e-015
parameters dlvth0_p33_rf = 1.9400e-009
parameters du0_p33_rf = 0.00015
parameters dwu0_p33_rf = -4.6e-011
parameters dcj_p33_rf = -6.1e-5
parameters dcjsw_p33_rf = -2.28e-12
parameters dlagidl_p33_rf = 1e-017
parameters dlu0_p33_rf = -3.2000e-011
parameters dlvsat_p33_rf = -0.0017
parameters dpu0_p33_rf = 1.5e-017
parameters dagidl_p33_rf = 2e-012
parameters dpvsat_p33_rf = 1.2e-9


include "ms011_ms013s_io33_rf_mos_v1p14_spe.ckt"
endsection mos_ff

section mos_ss
SetOption1 options  gmin=1e-14 scale=0.9
parameters sigma_mis_a_rf = 0
parameters sigma_mis_b_rf = 0
parameters sigma_mis_c_rf = 0
parameters sigma_mis_d_rf = 0
statistics {

    mismatch {

     vary sigma_mis_a_rf dist=gauss std=1/1
     vary sigma_mis_b_rf dist=gauss std=1/1
     vary sigma_mis_c_rf dist=gauss std=1/1
     vary sigma_mis_d_rf dist=gauss std=1/1

           }
      }


// *1.2V core NMOS
parameters dtox_n12_rf = 4e-11
parameters dxl_n12_rf = 7.00e-9
parameters dxw_n12_rf = -1.5e-8
parameters dvth_n12_rf = 0.0045
parameters dcj_n12_rf = 6.575e-5
parameters dcjsw_n12_rf = 5.2e-12
parameters du0_n12_rf = -5.0e-4
parameters dnlx_n12_rf = 6.0e-9
parameters dlu0_n12_rf = -9.0e-11
parameters dlvsat_n12_rf = -4.0e-4
parameters dk3_n12_rf = 0.75
parameters dpvth0_n12_rf = 1.7e-15
parameters dpu0_n12_rf = 1.8e-17
parameters dagidl_n12_rf = -3.1e-011

// *1.2V core PMOS
parameters dtox_p12_rf = 4e-11
parameters dxl_p12_rf = 7.00e-9
parameters dxw_p12_rf = -1.5e-8
parameters dvth_p12_rf = -0.02
parameters dcj_p12_rf = 6.1e-5
parameters dcjsw_p12_rf = 3.765e-12
parameters du0_p12_rf = -1.2e-4
parameters dnlx_p12_rf = 2.1e-8
parameters dlu0_p12_rf = -2.5e-11
parameters dlvsat_p12_rf = 0
parameters dwu0_p12_rf = -5e-11
parameters dpvth0_p12_rf = -2.6e-15
parameters dpu0_p12_rf = 7e-17
parameters dpvsat_p12_rf = 3e-9
parameters dagidl_p12_rf = -3.1e-012

// *3.3v io nmos
parameters dtox_n33_rf = 3e-010
parameters dxl_n33_rf = 1.8e-8
parameters dxw_n33_rf = -2.0e-8
parameters dvth_n33_rf = 0.0352
parameters dwvth0_n33_rf = 6.54e-009
parameters dpvth0_n33_rf = -1.08e-015
parameters dlvth0_n33_rf = 4.4e-009
parameters du0_n33_rf = -0.00086
parameters dwu0_n33_rf = -6e-011
parameters dcj_n33_rf = 4.500e-5
parameters dcjsw_n33_rf = 6.35e-12
parameters dagidl_n33_rf = -4.5e-13
parameters dlu0_n33_rf = -7e-010
parameters dlvsat_n33_rf = -0.00115
parameters dpu0_n33_rf = -1.4e-016
// *3.3v io pmos
parameters dtox_p33_rf = 3e-010
parameters dxl_p33_rf = 1.8e-8
parameters dxw_p33_rf = -2.0e-8
parameters dvth_p33_rf = -0.0274
parameters dwvth0_p33_rf = -1.03e-008
parameters dpvth0_p33_rf = 1.78e-015
parameters dlvth0_p33_rf = -2.97e-009
parameters du0_p33_rf = -0.00027
parameters dwu0_p33_rf = 1e-012
parameters dcj_p33_rf = 6.1e-5
parameters dcjsw_p33_rf = 2.28e-12
parameters dlagidl_p33_rf = -1e-018
parameters dlu0_p33_rf = 4e-011
parameters dlvsat_p33_rf = 0
parameters dpu0_p33_rf = -2.6e-017
parameters dagidl_p33_rf = -2e-012
parameters dpvsat_p33_rf = 0


include "ms011_ms013s_io33_rf_mos_v1p14_spe.ckt"
endsection mos_ss

section mos_fnsp
SetOption1 options  gmin=1e-14 scale=0.9
parameters sigma_mis_a_rf = 0
parameters sigma_mis_b_rf = 0
parameters sigma_mis_c_rf = 0
parameters sigma_mis_d_rf = 0
statistics {

    mismatch {

     vary sigma_mis_a_rf dist=gauss std=1/1
     vary sigma_mis_b_rf dist=gauss std=1/1
     vary sigma_mis_c_rf dist=gauss std=1/1
     vary sigma_mis_d_rf dist=gauss std=1/1

           }
      }


// *1.2V core NMOS
parameters dtox_n12_rf = 0
parameters dxl_n12_rf = 0
parameters dxw_n12_rf = 0
parameters dvth_n12_rf = -0.0045
parameters dcj_n12_rf = -6.575e-5
parameters dcjsw_n12_rf = -5.2e-12
parameters du0_n12_rf = 2.0e-4
parameters dnlx_n12_rf = -7.0e-9
parameters dlu0_n12_rf = 9.0e-11
parameters dlvsat_n12_rf = 0
parameters dk3_n12_rf = -0.15
parameters dpvth0_n12_rf = -1.7e-15
parameters dpu0_n12_rf = -6.0e-17
parameters dagidl_n12_rf = 3.1e-011

// *1.2V core PMOS
parameters dtox_p12_rf = 0
parameters dxl_p12_rf = 0
parameters dxw_p12_rf = 0
parameters dvth_p12_rf = -0.02
parameters dcj_p12_rf = 6.1e-5
parameters dcjsw_p12_rf = 3.765e-12
parameters du0_p12_rf = -1.2e-4
parameters dnlx_p12_rf = 2.1e-8
parameters dlu0_p12_rf = -2.5e-11
parameters dlvsat_p12_rf = 0
parameters dwu0_p12_rf = -5e-11
parameters dpvth0_p12_rf = -2.5e-15
parameters dpu0_p12_rf = 7e-17
parameters dpvsat_p12_rf = 3e-9
parameters dagidl_p12_rf = -3.1e-012

// *3.3v io nmos
parameters dtox_n33_rf = 0
parameters dxl_n33_rf = 0
parameters dxw_n33_rf = 0
parameters dvth_n33_rf = -0.0463
parameters dwvth0_n33_rf = -4.63e-009
parameters dpvth0_n33_rf = 8.9e-016
parameters dlvth0_n33_rf = -4.8e-009
parameters du0_n33_rf = 0.00105
parameters dwu0_n33_rf = 8e-011
parameters dcj_n33_rf = -4.500e-5
parameters dcjsw_n33_rf = -6.35e-12
parameters dagidl_n33_rf = 3.15e-13
parameters dlu0_n33_rf = 9e-010
parameters dlvsat_n33_rf = 0.0015
parameters dpu0_n33_rf = 1.8e-016
// *3.3v io pmos
parameters dtox_p33_rf = 0
parameters dxl_p33_rf = 0
parameters dxw_p33_rf = 0
parameters dvth_p33_rf = -0.047
parameters dwvth0_p33_rf = -6.6000e-009
parameters dpvth0_p33_rf = 1.01e-015
parameters dlvth0_p33_rf = -4.1e-009
parameters du0_p33_rf = -1e-007
parameters dwu0_p33_rf = -1.27e-010
parameters dcj_p33_rf = 6.1e-5
parameters dcjsw_p33_rf = 2.28e-12
parameters dlagidl_p33_rf = -1e-018
parameters dlu0_p33_rf = -2.7e-010
parameters dlvsat_p33_rf = 0
parameters dpu0_p33_rf = 4.3e-017
parameters dagidl_p33_rf = -1.4e-012
parameters dpvsat_p33_rf = 0


include "ms011_ms013s_io33_rf_mos_v1p14_spe.ckt"
endsection mos_fnsp


section mos_snfp
SetOption1 options  gmin=1e-14 scale=0.9
parameters sigma_mis_a_rf = 0
parameters sigma_mis_b_rf = 0
parameters sigma_mis_c_rf = 0
parameters sigma_mis_d_rf = 0
statistics {

    mismatch {

     vary sigma_mis_a_rf dist=gauss std=1/1
     vary sigma_mis_b_rf dist=gauss std=1/1
     vary sigma_mis_c_rf dist=gauss std=1/1
     vary sigma_mis_d_rf dist=gauss std=1/1

           }
      }

// *1.2V core NMOS
parameters dtox_n12_rf = 0
parameters dxl_n12_rf = 0
parameters dxw_n12_rf = 0
parameters dvth_n12_rf = 0.0045
parameters dcj_n12_rf = 6.575e-5
parameters dcjsw_n12_rf = 5.2e-12
parameters du0_n12_rf = -5.0e-4
parameters dnlx_n12_rf = 6.0e-9
parameters dlu0_n12_rf = -9.0e-11
parameters dlvsat_n12_rf = -4.0e-4
parameters dk3_n12_rf = 0.75
parameters dpvth0_n12_rf = 1.7e-15
parameters dpu0_n12_rf = 1.8e-17
parameters dagidl_n12_rf = -3.1e-011

// *1.2V core PMOS
parameters dtox_p12_rf = 0
parameters dxl_p12_rf = 0
parameters dxw_p12_rf = 0
parameters dvth_p12_rf = 0.020
parameters dcj_p12_rf = -6.1e-5
parameters dcjsw_p12_rf = -3.765e-12
parameters du0_p12_rf = 1.2e-4
parameters dnlx_p12_rf = -2.1e-8
parameters dlu0_p12_rf = 0
parameters dlvsat_p12_rf = 0
parameters dwu0_p12_rf = 0
parameters dpvth0_p12_rf = 2.6e-15
parameters dpu0_p12_rf = -6e-17
parameters dpvsat_p12_rf = -3e-9
parameters dagidl_p12_rf = 3.1e-012

// *3.3v io nmos
parameters dtox_n33_rf = 0
parameters dxl_n33_rf = 0
parameters dxw_n33_rf = 0
parameters dvth_n33_rf = 0.0475
parameters dwvth0_n33_rf = 4.24e-009
parameters dpvth0_n33_rf = -8.2e-016
parameters dlvth0_n33_rf = 4.56e-009
parameters du0_n33_rf = -0.00115
parameters dwu0_n33_rf = -1.4e-010
parameters dcj_n33_rf = 4.500e-5
parameters dcjsw_n33_rf = 6.35e-12
parameters dagidl_n33_rf = -3.15e-13
parameters dlu0_n33_rf = -7e-010
parameters dlvsat_n33_rf = -0.00165
parameters dpu0_n33_rf = -1e-016
// *3.3v io pmos
parameters dtox_p33_rf = 0
parameters dxl_p33_rf = 0
parameters dxw_p33_rf = 0
parameters dvth_p33_rf = 0.0449
parameters dwvth0_p33_rf = 7.3e-009
parameters dpvth0_p33_rf = -1.08e-015
parameters dlvth0_p33_rf = 4.81e-009
parameters du0_p33_rf = 0.0003
parameters dwu0_p33_rf = 2.8e-011
parameters dcj_p33_rf = -6.1e-5
parameters dcjsw_p33_rf = -2.28e-12
parameters dlagidl_p33_rf = 1e-017
parameters dlu0_p33_rf = 1.9e-010
parameters dlvsat_p33_rf = 0
parameters dpu0_p33_rf = -2e-017
parameters dagidl_p33_rf = 1.4e-012
parameters dpvsat_p33_rf = 8.4e-10


include "ms011_ms013s_io33_rf_mos_v1p14_spe.ckt"
endsection mos_snfp

// *************************
// * MOS Monte Carlo Model *
// *************************

section mos_mc
SetOption1 options  gmin=1e-14 scale=0.9
parameters sigma_mis_a_rf = 0
parameters sigma_mis_b_rf = 0
parameters sigma_mis_c_rf = 0
parameters sigma_mis_d_rf = 0
statistics {

    mismatch {

     vary sigma_mis_a_rf dist=gauss std=1/1
     vary sigma_mis_b_rf dist=gauss std=1/1
     vary sigma_mis_c_rf dist=gauss std=1/1
     vary sigma_mis_d_rf dist=gauss std=1/1

           }
      }
//*
parameters a_rf = 0
parameters b_rf = 0
statistics {
    process {
        vary a_rf dist=gauss std=1/3
        vary b_rf dist=gauss std=1/3
            }
           }
// *1.2V core NMOS
parameters dtox_n12_rf = 4e-11*a_rf
parameters dxl_n12_rf = 7.00e-9*a_rf
parameters dxw_n12_rf = -1.5e-8*a_rf
parameters dvth_n12_rf = 0.0045*a_rf
parameters dcj_n12_rf = 6.575e-5*a_rf
parameters dcjsw_n12_rf = 5.2e-12*a_rf
parameters du0_n12_rf = -5.0e-4*a_rf
parameters dnlx_n12_rf = 6.0e-9*a_rf
parameters dlu0_n12_rf = -9.0e-11*a_rf
parameters dlvsat_n12_rf = -4.0e-4*a_rf
parameters dk3_n12_rf = 0.75*a_rf
parameters dpvth0_n12_rf = 1.7e-15*a_rf
parameters dpu0_n12_rf = 1.8e-17*a_rf
parameters dagidl_n12_rf = -3.1e-011*a_rf


// *1.2V core PMOS
parameters dtox_p12_rf = 4e-11*b_rf
parameters dxl_p12_rf = 7.00e-9*b_rf
parameters dxw_p12_rf = -1.5e-8*b_rf
parameters dvth_p12_rf = -0.02*b_rf
parameters dcj_p12_rf = 6.1e-5*b_rf
parameters dcjsw_p12_rf = 3.765e-12*b_rf
parameters du0_p12_rf = -1.2e-4*b_rf
parameters dnlx_p12_rf = 2.1e-8*b_rf
parameters dlu0_p12_rf = -2.5e-11*b_rf
parameters dlvsat_p12_rf = 0*b_rf
parameters dwu0_p12_rf = -5e-11*b_rf
parameters dpvth0_p12_rf = -2.6e-15*b_rf
parameters dpu0_p12_rf = 7e-17*b_rf
parameters dpvsat_p12_rf = 3e-9*b_rf
parameters dagidl_p12_rf = -3.1e-012*b_rf

// *3.3v io nmos
parameters dtox_n33_rf = 3e-010*a_rf
parameters dxl_n33_rf = 1.8e-8*a_rf
parameters dxw_n33_rf = -2.0e-8*a_rf
parameters dvth_n33_rf = 0.0352*a_rf
parameters dwvth0_n33_rf = 6.54e-009*a_rf
parameters dpvth0_n33_rf = -1.08e-015*a_rf
parameters dlvth0_n33_rf = 4.4e-009*a_rf
parameters du0_n33_rf = -0.00086*a_rf
parameters dwu0_n33_rf = -6e-011*a_rf
parameters dcj_n33_rf = 4.500e-5*a_rf
parameters dcjsw_n33_rf = 6.35e-12*a_rf
parameters dagidl_n33_rf = -4.5e-13*a_rf
parameters dlu0_n33_rf = -7e-010*a_rf
parameters dlvsat_n33_rf = -0.00115*a_rf
parameters dpu0_n33_rf = -1.4e-016*a_rf
// *3.3v io pmos
parameters dtox_p33_rf = -3e-010*b_rf
parameters dxl_p33_rf = -1.8e-8*b_rf
parameters dxw_p33_rf = 2.0e-8*b_rf
parameters dvth_p33_rf = 0.0277*b_rf
parameters dwvth0_p33_rf = 1.17e-008*b_rf
parameters dpvth0_p33_rf = -1.52e-015*b_rf
parameters dlvth0_p33_rf = 1.9400e-009*b_rf
parameters du0_p33_rf = 0.00015*b_rf
parameters dwu0_p33_rf = -4.6e-011*b_rf
parameters dcj_p33_rf = -6.1e-5*b_rf
parameters dcjsw_p33_rf = -2.28e-12*b_rf
parameters dlagidl_p33_rf = 1e-017*b_rf
parameters dlu0_p33_rf = -3.2000e-011*b_rf
parameters dlvsat_p33_rf = -0.0017*b_rf
parameters dpu0_p33_rf = 1.2e-017*b_rf
parameters dagidl_p33_rf = 2e-012*b_rf
parameters dpvsat_p33_rf = 1.2e-9*b_rf


include "ms011_ms013s_io33_rf_mos_v1p14_spe.ckt"
endsection mos_mc

// ***********************
// * Resistor Corner model
// ***********************
section res_tt
// *Resistor
SetOption1 options scale=0.9
parameters sigma_mis_r_rf = 0
statistics {
    mismatch {
     vary sigma_mis_r_rf dist=gauss std=1/1
           }
      }
parameters drsh_rnposab_rf = 0
parameters drsh_rpposab_rf = 0
parameters ddw_rnposab_rf = 0
parameters ddw_rpposab_rf = 0
parameters drsh_rhrpo_rf = 0
parameters ddw_rhrpo_rf = 0
parameters drsh_rhrpo_rf_3t = 0
parameters ddw_rhrpo_rf_3t = 0
include "ms011_ms013s_io33_rf_res_v1p14_spe.ckt"
endsection res_tt


section res_ff
// *Resistor
SetOption1 options scale=0.9
parameters sigma_mis_r_rf = 0
statistics {
    mismatch {
     vary sigma_mis_r_rf dist=gauss std=1/1
           }
      }
parameters drsh_rnposab_rf = -53.79
parameters drsh_rpposab_rf = -68.65
parameters ddw_rnposab_rf = -1e-08
parameters ddw_rpposab_rf = -1e-08
parameters drsh_rhrpo_rf = -42.06
parameters ddw_rhrpo_rf = 0
parameters drsh_rhrpo_rf_3t = -42.06
parameters ddw_rhrpo_rf_3t = 0

include "ms011_ms013s_io33_rf_res_v1p14_spe.ckt"
endsection res_ff


section res_ss
// *Resistor
SetOption1 options scale=0.9
parameters sigma_mis_r_rf = 0
statistics {
    mismatch {
     vary sigma_mis_r_rf dist=gauss std=1/1
           }
      }
parameters drsh_rnposab_rf = 53.79
parameters drsh_rpposab_rf = 68.65
parameters ddw_rnposab_rf = 1e-08
parameters ddw_rpposab_rf = 1e-08
parameters drsh_rhrpo_rf = 42.06
parameters ddw_rhrpo_rf = 0
parameters drsh_rhrpo_rf_3t = 42.06
parameters ddw_rhrpo_rf_3t = 0

include "ms011_ms013s_io33_rf_res_v1p14_spe.ckt"
endsection res_ss
// *******************************
// *  Resistor Monte Carlo model *
// *******************************

section res_mc
SetOption1 options scale=0.9
parameters sigma_mis_r_rf = 0
statistics {
    mismatch {
     vary sigma_mis_r_rf dist=gauss std=1/1
           }
      }
parameters sigma_res_rf = 0
statistics {
    process {
        vary sigma_res_rf dist=gauss std=1/3
            }
           }

// *Resistor
parameters drsh_rnposab_rf = -53.79*sigma_res_rf
parameters drsh_rpposab_rf = -68.65*sigma_res_rf
parameters ddw_rnposab_rf = -1e-08*sigma_res_rf
parameters ddw_rpposab_rf = -1e-08*sigma_res_rf
parameters drsh_rhrpo_rf = -42.06*sigma_res_rf
parameters ddw_rhrpo_rf = 0*sigma_res_rf
parameters drsh_rhrpo_rf_3t = -42.06*sigma_res_rf
parameters ddw_rhrpo_rf_3t = 0*sigma_res_rf

include "ms011_ms013s_io33_rf_res_v1p14_spe.ckt"
endsection res_mc

// ****************************************
// * Top metal Resistor Monte Carlo model *
// ****************************************

section res_mc
parameters sigma_res_rf = 0
statistics {
    process {
        vary sigma_res_rf dist=gauss std=1/3
            }
           }

// *Resistor
parameters drsh_rnposab_rf = -53.79*sigma_res_rf
parameters drsh_rpposab_rf = -68.65*sigma_res_rf
parameters ddw_rnposab_rf = -1e-08*sigma_res_rf
parameters ddw_rpposab_rf = -1e-08*sigma_res_rf
include "ms011_ms013s_io33_rf_res_v1p14_spe.ckt"
endsection res_mc

// *********************************
// * Top metal Resistor Corner model
// *********************************
section tm2_res_tt
// *Top Metal Resistor
parameters drsh_rtm2_rf = 0
parameters ddw_rtm2_rf = 0
parameters dcox_tm2_rf = 0
parameters dcapsw_tm2_rf = 0
parameters drsh_ralpa_rf = 0
parameters ddw_ralpa_rf = 0
parameters dcox_alpa_rf = 0
parameters dcapsw_alpa_rf = 0
include "ms011_ms013s_io33_rf_TM2_res_v1p14_spe.ckt"
endsection tm2_res_tt

section tm2_res_ff
// *Top Metal Resistor
parameters drsh_rtm2_rf = -0.0015
parameters ddw_rtm2_rf = -5e-10
parameters dcox_tm2_rf = -3.93E-7     
parameters dcapsw_tm2_rf = -1.548E-11   
parameters drsh_ralpa_rf = -0.0065
parameters ddw_ralpa_rf = 0
parameters dcox_alpa_rf = -1.33E-07
parameters dcapsw_alpa_rf = -7.100E-13
include "ms011_ms013s_io33_rf_TM2_res_v1p14_spe.ckt"
endsection tm2_res_ff

section tm2_res_ss
// *Top Metal Resistor
parameters drsh_rtm2_rf = 0.0015
parameters ddw_rtm2_rf = 5e-10
parameters dcox_tm2_rf = 4.48E-7      
parameters dcapsw_tm2_rf = 1.979E-11    
parameters drsh_ralpa_rf = 0.0065
parameters ddw_ralpa_rf = 0
parameters dcox_alpa_rf = 1.64E-07
parameters dcapsw_alpa_rf = 2.750E-12
include "ms011_ms013s_io33_rf_TM2_res_v1p14_spe.ckt"
endsection tm2_res_ss

// ****************************************
// * Top metal Resistor Monte Carlo model *
// ****************************************

section tm2_res_mc
parameters sigma_rtm = 0
statistics {
    process {
        vary sigma_rtm dist=gauss std=1/3
            }
           }

// *Top Metal Resistor
parameters drsh_rtm2_rf = -0.0015*sigma_rtm
parameters ddw_rtm2_rf = -5e-10*sigma_rtm
parameters dcox_tm2_rf = -3.93E-7*sigma_rtm
parameters dcapsw_tm2_rf = -1.548E-11*sigma_rtm
parameters drsh_ralpa_rf = -0.0065*sigma_rtm
parameters ddw_ralpa_rf = 0*sigma_rtm
parameters dcox_alpa_rf = -1.33E-07*sigma_rtm
parameters dcapsw_alpa_rf = -7.100E-13*sigma_rtm
include "ms011_ms013s_io33_rf_TM2_res_v1p14_spe.ckt"
endsection tm2_res_mc

// *******************
// * MIM Corner model
// *******************
section mim_tt
SetOption1 options scale=0.9
parameters dmim1_rf = 0
parameters dmim1_shield_rf = 0
parameters dmim15_rf = 0
parameters dmim15_shield_rf = 0
parameters dmim2_rf_2mask = 0
parameters dmim2_shield_rf_2mask = 0
parameters dmim3_rf = 0
// *   
parameters sigma_mis_mim_rf = 0
statistics {
    mismatch {
     vary sigma_mis_mim_rf dist=gauss std=1/1
           }
      }

include "ms011_ms013s_io33_rf_mim_v1p14_spe.ckt"
endsection mim_tt

section mim_ff
SetOption1 options scale=0.9
parameters dmim1_rf = -0.20597
parameters dmim1_shield_rf = -0.20597
parameters dmim15_rf = -0.20704
parameters dmim15_shield_rf = -0.20704
parameters dmim2_rf_2mask = -0.2
parameters dmim2_shield_rf_2mask = -0.2
parameters dmim3_rf = -0.2
// *
parameters sigma_mis_mim_rf = 0
statistics {
    mismatch {
     vary sigma_mis_mim_rf dist=gauss std=1/1
           }
      }
include "ms011_ms013s_io33_rf_mim_v1p14_spe.ckt"
endsection mim_ff

section mim_ss
SetOption1 options scale=0.9
parameters dmim1_rf = 0.20597
parameters dmim1_shield_rf = 0.20597
parameters dmim15_rf = 0.20704
parameters dmim15_shield_rf = 0.20704
parameters dmim2_rf_2mask = 0.2
parameters dmim2_shield_rf_2mask = 0.2
parameters dmim3_rf = 0.2
// *
parameters sigma_mis_mim_rf = 0
statistics {
    mismatch {
     vary sigma_mis_mim_rf dist=gauss std=1/1
           }
      }
include "ms011_ms013s_io33_rf_mim_v1p14_spe.ckt"
endsection mim_ss

// ***********************************
// * MIM Monte Carlo model *
// ***********************************

section mim_mc
SetOption1 options scale=0.9
parameters sigma_mim_rf = 0
statistics {
    process {
        vary sigma_mim_rf dist=gauss std=1/3
            }
           }

parameters dmim1_rf = -0.20597*sigma_mim_rf
parameters dmim1_shield_rf = -0.20597*sigma_mim_rf
parameters dmim15_rf = -0.20704*sigma_mim_rf
parameters dmim15_shield_rf = -0.20704*sigma_mim_rf
parameters dmim2_rf_2mask = -0.2*sigma_mim_rf
parameters dmim2_shield_rf_2mask = -0.2*sigma_mim_rf
parameters dmim3_rf = -0.2*sigma_mim_rf
// *
parameters sigma_mis_mim_rf = 0
statistics {
    mismatch {
     vary sigma_mis_mim_rf dist=gauss std=1/1
           }
      }

include "ms011_ms013s_io33_rf_mim_v1p14_spe.ckt"
endsection mim_mc


endlibrary ms011_ms013s_io33_rf_v1p14

// *******************
// * MOM Corner model
// *******************
section mom_tt
// *MOM
parameters dmom_rf = 0
include "ms011_ms013s_io33_rf_mom_v1p14_spe.ckt"
endsection mom_tt

section mom_ff
// *MOM
parameters dmom_rf = -0.1
include "ms011_ms013s_io33_rf_mom_v1p14_spe.ckt"
endsection mom_ff

section mom_ss
// *MOM
parameters dmom_rf = 0.1
include "ms011_ms013s_io33_rf_mom_v1p14_spe.ckt"
endsection mom_ss

// ***********************************
// * MOM Monte Carlo model *
// ***********************************

section mom_mc
parameters sigma_mom_rf = 0
statistics {
    process {
        vary sigma_mom_rf dist=gauss std=1/3
            }
           }

// *MOM
parameters dmom_rf = -0.1*sigma_mom_rf
include "ms011_ms013s_io33_rf_mom_v1p14_spe.ckt"
endsection mom_mc

// *****************************
// * MOS Varactor Corner model *
// *****************************
section var_tt
parameters dtox_mosvar12_rf = 0
parameters dcgg_mosvar12_rf = 0
parameters dcgg_mosvar33_rf = 0
include "ms011_ms013s_io33_rf_var_v1p14_spe.ckt"
endsection var_tt

section var_ff
parameters dtox_mosvar12_rf = -4E-11
parameters dcgg_mosvar12_rf = 0.08
parameters dcgg_mosvar33_rf = 0.055
include "ms011_ms013s_io33_rf_var_v1p14_spe.ckt"
endsection var_ff

section var_ss
parameters dtox_mosvar12_rf = 4E-11
parameters dcgg_mosvar12_rf = -0.08
parameters dcgg_mosvar33_rf = -0.055
include "ms011_ms013s_io33_rf_var_v1p14_spe.ckt"
endsection var_ss

// **********************************
// * MOS varactor Monte Carlo model *
// **********************************

section var_mc
parameters sigma_var_rf = 0
statistics {
    process {
        vary sigma_var_rf dist=gauss std=1/3
            }
           }

// *mos varactor
parameters dtox_mosvar12_rf = 4E-11*sigma_var_rf
parameters dcgg_mosvar12_rf = -0.08*sigma_var_rf
parameters dcgg_mosvar33_rf = -0.055*sigma_var_rf
include "ms011_ms013s_io33_rf_var_v1p14_spe.ckt"
endsection var_mc


//*****************************************
//* Spiral utm psub Inductor Corner model *
//*****************************************
section ind_rf_pgs_psub_n_tt
//SetOption1 options auto_minductor=no
parameters drs_rf_pgs_psub_n = 0
parameters dls_rf_pgs_psub_n = 0
include "ms011_ms013s_io33_ind_rf_pgs_psub_n_v1p14_spe.ckt"

endsection ind_rf_pgs_psub_n_tt

section ind_rf_pgs_psub_n_ff
//SetOption1 options auto_minductor=no
parameters drs_rf_pgs_psub_n = -0.15
parameters dls_rf_pgs_psub_n = -0.015
include "ms011_ms013s_io33_ind_rf_pgs_psub_n_v1p14_spe.ckt"

endsection ind_rf_pgs_psub_n_ff

section ind_rf_pgs_psub_n_ss
//SetOption1 options auto_minductor=no
parameters drs_rf_pgs_psub_n = 0.15
parameters dls_rf_pgs_psub_n = 0.015
include "ms011_ms013s_io33_ind_rf_pgs_psub_n_v1p14_spe.ckt"

endsection ind_rf_pgs_psub_n_ss

//*****************************************
//* Spiral utm Inductor Corner model *
//*****************************************
section ind_rf_pgs_n_tt
//SetOption1 options auto_minductor=no
parameters drs_rf_pgs_n = 0
parameters dls_rf_pgs_n = 0
include "ms011_ms013s_io33_ind_rf_pgs_n_v1p14_spe.ckt"

endsection ind_rf_pgs_n_tt

section ind_rf_pgs_n_ff
//SetOption1 options auto_minductor=no
parameters drs_rf_pgs_n = -0.15
parameters dls_rf_pgs_n = -0.015
include "ms011_ms013s_io33_ind_rf_pgs_n_v1p14_spe.ckt"

endsection ind_rf_pgs_n_ff

section ind_rf_pgs_n_ss
//SetOption1 options auto_minductor=no
parameters drs_rf_pgs_n = 0.15
parameters dls_rf_pgs_n = 0.015
include "ms011_ms013s_io33_ind_rf_pgs_n_v1p14_spe.ckt"

endsection ind_rf_pgs_n_ss

//**************************************************
//* 3T Differential utm psub Inductor Corner model *
//**************************************************
section diff_ind_3t_rf_pgs_psub_n_tt
//SetOption1 options auto_minductor=no
parameters dls_diff_ind_3t_rf_pgs_psub_n = 0
parameters drs_diff_ind_3t_rf_pgs_psub_n = 0
include "ms011_ms013s_io33_diff_ind_3t_rf_pgs_psub_n_v1p14_spe.ckt"

endsection diff_ind_3t_rf_pgs_psub_n_tt

section diff_ind_3t_rf_pgs_psub_n_ff
//SetOption1 options auto_minductor=no
parameters dls_diff_ind_3t_rf_pgs_psub_n = -0.015
parameters drs_diff_ind_3t_rf_pgs_psub_n = -0.15
include "ms011_ms013s_io33_diff_ind_3t_rf_pgs_psub_n_v1p14_spe.ckt"

endsection diff_ind_3t_rf_pgs_psub_n_ff

section diff_ind_3t_rf_pgs_psub_n_ss
//SetOption1 options auto_minductor=no
parameters dls_diff_ind_3t_rf_pgs_psub_n = 0.015
parameters drs_diff_ind_3t_rf_pgs_psub_n = 0.15
include "ms011_ms013s_io33_diff_ind_3t_rf_pgs_psub_n_v1p14_spe.ckt"

endsection diff_ind_3t_rf_pgs_psub_n_ss

//**************************************************
//* 3T Differential utm Inductor Corner model *
//**************************************************
section diff_ind_3t_rf_pgs_n_tt
//SetOption1 options auto_minductor=no
parameters dls_diff_ind_3t_rf_pgs_n = 0
parameters drs_diff_ind_3t_rf_pgs_n = 0
include "ms011_ms013s_io33_diff_ind_3t_rf_pgs_n_v1p14_spe.ckt"

endsection diff_ind_3t_rf_pgs_n_tt

section diff_ind_3t_rf_pgs_n_ff
//SetOption1 options auto_minductor=no 
parameters dls_diff_ind_3t_rf_pgs_n = -0.015
parameters drs_diff_ind_3t_rf_pgs_n = -0.15
include "ms011_ms013s_io33_diff_ind_3t_rf_pgs_n_v1p14_spe.ckt"

endsection diff_ind_3t_rf_pgs_n_ff

section diff_ind_3t_rf_pgs_n_ss
//SetOption1 options auto_minductor=no
parameters dls_diff_ind_3t_rf_pgs_n = 0.015
parameters drs_diff_ind_3t_rf_pgs_n = 0.15
include "ms011_ms013s_io33_diff_ind_3t_rf_pgs_n_v1p14_spe.ckt"

endsection diff_ind_3t_rf_pgs_n_ss

//*******************************************************
//* 2T Differential utm psub Inductor Corner model *
//*******************************************************
section diff_ind_rf_pgs_psub_n_tt
//SetOption1 options auto_minductor=no 
parameters dls_diff_ind_rf_pgs_psub_n = 0