// * Spectre Lib Format by SDMT
simulator lang=spectre  insensitive=yes

library ms011_ms013s_io33_v1p24
// * this file contains 1.2v and 3.3v corner model parameters.
// * five corners are supported: tt, ff, ss, snfp, and fnsp.
// * this file should be used with the model parameter file 'ms011_ms013s_io33_v1p24.mdl', 'ms011_ms013s_io33_v1p24_dio.mdl',
// * 'ms011_ms013s_io33_v1p24_mis.mdl','ms011_ms013s_io33_v1p24_bjt.mdl' and 'ms011_ms013s_io33_v1p24_res.ckt'.
// * no part of this file can be released without the consent of smic.
// ********************
// *  mos corner model
// ********************
section tt
setoption1 options gmin=1e-14 scale =0.9
parameters sigma_mis_a = 0
parameters sigma_mis_b = 0
parameters sigma_mis_c = 0
parameters sigma_mis_d = 0
statistics {

    mismatch {

     vary sigma_mis_a dist=gauss std=1/1
     vary sigma_mis_b dist=gauss std=1/1
     vary sigma_mis_c dist=gauss std=1/1
     vary sigma_mis_d dist=gauss std=1/1

           }
      }
// *1.2v core nmos
inline subckt n12_mis_ckt ( d g s b )
parameters w=1e-6 l=1e-6 sa=sar sb=sbr as=asr ad=adr ps=psr pd=pdr nrd=nrdr nrs=nrsr mr=1 mismod=0
parameters dmcgr = 1.9e-7
parameters sar = 2.25e-006
parameters sbr = 2.25e-006
parameters adr = sar*w
parameters asr = sbr*w
parameters pdr = 2*(sar+w)
parameters psr = 2*(sbr+w)
parameters nrdr = dmcgr/w
parameters nrsr = dmcgr/w
parameters atox_n12 = 1.7e-11
parameters axl_n12 = 3e-9
parameters scale_mos = 0.9
parameters lef = l*scale_mos
parameters wef = w*scale_mos
parameters dtox_n12_mis = atox_n12*1/sqrt(lef*wef*1e12*mr)*sigma_mis_a*mismod
parameters dxl_n12_mis = axl_n12*1/sqrt(wef*1e6*mr)*sigma_mis_b*mismod
n12_mis_ckt (d g s b) n12_mis_ckt w=w l=l sa=sa sb=sb as=as ad=ad ps=ps pd=pd nrd=nrd nrs=nrs m=mr
include "ms011_ms013s_io33_v1p24_mis_spe.mdl"
ends n12_mis_ckt

// *1.2v core pmos
inline subckt p12_mis_ckt ( d g s b )
parameters w=1e-6 l=1e-6 sa=sar sb=sbr as=asr ad=adr ps=psr pd=pdr nrd=nrdr nrs=nrsr mr=1 mismod=0
parameters dmcgr = 1.9e-7
parameters sar = 2.25e-006
parameters sbr = 2.25e-006
parameters adr = sar*w
parameters asr = sbr*w
parameters pdr = 2*(sar+w)
parameters psr = 2*(sbr+w)
parameters nrdr = dmcgr/w
parameters nrsr = dmcgr/w
parameters atox_p12 = 2.85e-11
parameters axl_p12 = 8e-10
parameters scale_mos = 0.9
parameters lef = l*scale_mos
parameters wef = w*scale_mos
parameters dtox_p12_mis = atox_p12*1/sqrt(lef*wef*1e12*mr)*sigma_mis_a*mismod
parameters dxl_p12_mis = axl_p12*1/sqrt(wef*1e6*mr)*sigma_mis_b*mismod
p12_mis_ckt (d g s b) p12_mis_ckt w=w l=l sa=sa sb=sb as=as ad=ad ps=ps pd=pd nrd=nrd nrs=nrs m=mr
include "ms011_ms013s_io33_v1p24_mis_spe.mdl"
ends p12_mis_ckt

// *3.3v core nmos
inline subckt n33_mis_ckt ( d g s b )
parameters w=1e-6 l=1e-6 sa=sar sb=sbr as=asr ad=adr ps=psr pd=pdr nrd=nrdr nrs=nrsr mr=1 mismod=0
parameters dmcgr = 2.1e-7
parameters sar = 3.32e-006
parameters sbr = 3.32e-006
parameters adr = sar*w
parameters asr = sbr*w
parameters pdr = 2*(sar+w)
parameters psr = 2*(sbr+w)
parameters nrdr = dmcgr/w
parameters nrsr = dmcgr/w
parameters atox_n33 = 4e-11
parameters axl_n33 = 3e-9
parameters avth_n33 = 9.5e-3
parameters au0_n33 = 6e-4
parameters scale_mos = 0.9
parameters lef = l*scale_mos
parameters wef = w*scale_mos
parameters dtox_n33_mis = atox_n33*1/sqrt(lef*wef*1e12*mr)*sigma_mis_a*mismod
parameters dxl_n33_mis = axl_n33*1/sqrt(wef*1e6*mr)*sigma_mis_b*mismod
parameters dvth_n33_mis = avth_n33*1/sqrt(lef*wef*1e12*mr)*sigma_mis_c*mismod
parameters du0_n33_mis = au0_n33*1/sqrt(lef*wef*1e12*mr)*sigma_mis_d*mismod
n33_mis_ckt (d g s b) n33_mis_ckt w=w l=l sa=sa sb=sb as=as ad=ad ps=ps pd=pd nrd=nrd nrs=nrs m=mr
include "ms011_ms013s_io33_v1p24_mis_spe.mdl"
ends n33_mis_ckt

// *3.3v core pmos
inline subckt p33_mis_ckt ( d g s b )
parameters w=1e-6 l=1e-6 sa=sar sb=sbr as=asr ad=adr ps=psr pd=pdr nrd=nrdr nrs=nrsr mr=1 mismod=0
parameters dmcgr = 2.1e-7
parameters sar = 3.32e-006
parameters sbr = 3.32e-006
parameters adr = sar*w
parameters asr = sbr*w
parameters pdr = 2*(sar+w)
parameters psr = 2*(sbr+w)
parameters nrdr = dmcgr/w
parameters nrsr = dmcgr/w
parameters atox_p33 = 3e-11
parameters axl_p33 = 3e-10
parameters avth_p33 = 3.5e-3
parameters au0_p33 = 1e-4
parameters scale_mos = 0.9
parameters lef = l*scale_mos
parameters wef = w*scale_mos
parameters dtox_p33_mis = atox_p33*1/sqrt(lef*wef*1e12*mr)*sigma_mis_a*mismod
parameters dxl_p33_mis = axl_p33*1/sqrt(wef*1e6*mr)*sigma_mis_b*mismod
parameters dvth_p33_mis = avth_p33*1/sqrt(lef*wef*1e12*mr)*sigma_mis_c*mismod
parameters du0_p33_mis = au0_p33*1/sqrt(lef*wef*1e12*mr)*sigma_mis_d*mismod
p33_mis_ckt (d g s b) p33_mis_ckt w=w l=l sa=sa sb=sb as=as ad=ad ps=ps pd=pd nrd=nrd nrs=nrs m=mr
include "ms011_ms013s_io33_v1p24_mis_spe.mdl"
ends p33_mis_ckt

// *1.2v core dnw nmos
inline subckt dnw12_4t_ckt ( d g s b )
parameters w=1e-6 l=1e-6 sa=sar sb=sbr as=asr ad=adr ps=psr pd=pdr nrd=nrdr nrs=nrsr mr=1 mismod=0
parameters dmcgr = 1.9e-7
parameters sar = 2.25e-006
parameters sbr = 2.25e-006
parameters adr = sar*w
parameters asr = sbr*w
parameters pdr = 2*(sar+w)
parameters psr = 2*(sbr+w)
parameters nrdr = dmcgr/w
parameters nrsr = dmcgr/w
parameters atox_n12 = 1.7e-11
parameters axl_n12 = 3e-9
parameters scale_mos = 0.9
parameters lef = l*scale_mos
parameters wef = w*scale_mos
parameters dtox_n12_mis = atox_n12*1/sqrt(lef*wef*1e12*mr)*sigma_mis_a*mismod
parameters dxl_n12_mis = axl_n12*1/sqrt(wef*1e6*mr)*sigma_mis_b*mismod
dnw12_4t_ckt (d g s b) n12_mis_ckt w=w l=l sa=sa sb=sb as=as ad=ad ps=ps pd=pd nrd=nrd nrs=nrs m=mr
include "ms011_ms013s_io33_v1p24_mis_spe.mdl"
ends dnw12_4t_ckt

// *1.2v core dnw hvt nmos
inline subckt dnwhvt12_4t_ckt ( d g s b )
parameters w=1e-6 l=1e-6 sa=sar sb=sbr as=asr ad=adr ps=psr pd=pdr nrd=nrdr nrs=nrsr mr=1
parameters dmcgr = 1.9e-7
parameters sar = 2.25e-006
parameters sbr = 2.25e-006
parameters adr = sar*w
parameters asr = sbr*w
parameters pdr = 2*(sar+w)
parameters psr = 2*(sbr+w)
parameters nrdr = dmcgr/w
parameters nrsr = dmcgr/w
dnwhvt12_4t_ckt (d g s b) nhvt12 w=w l=l sa=sa sb=sb as=as ad=ad ps=ps pd=pd nrd=nrd nrs=nrs m=mr
include "ms011_ms013s_io33_v1p24_spe.mdl"
ends dnwhvt12_4t_ckt

// *1.2v core dnw lvt nmos
inline subckt dnwlvt12_4t_ckt ( d g s b )
parameters w=1e-6 l=1e-6 sa=sar sb=sbr as=asr ad=adr ps=psr pd=pdr nrd=nrdr nrs=nrsr mr=1
parameters dmcgr = 1.9e-7
parameters sar = 2.25e-006
parameters sbr = 2.25e-006
parameters adr = sar*w
parameters asr = sbr*w
parameters pdr = 2*(sar+w)
parameters psr = 2*(sbr+w)
parameters nrdr = dmcgr/w
parameters nrsr = dmcgr/w
dnwlvt12_4t_ckt (d g s b) nlvt12 w=w l=l sa=sa sb=sb as=as ad=ad ps=ps pd=pd nrd=nrd nrs=nrs m=mr
include "ms011_ms013s_io33_v1p24_spe.mdl"
ends dnwlvt12_4t_ckt

// *3.3v io dnw nmos
inline subckt dnw33_4t_ckt ( d g s b )
parameters w=1e-6 l=1e-6 sa=sar sb=sbr as=asr ad=adr ps=psr pd=pdr nrd=nrdr nrs=nrsr mr=1 mismod=0
parameters dmcgr = 2.1e-7
parameters sar = 3.32e-006
parameters sbr = 3.32e-006
parameters adr = sar*w
parameters asr = sbr*w
parameters pdr = 2*(sar+w)
parameters psr = 2*(sbr+w)
parameters nrdr = dmcgr/w
parameters nrsr = dmcgr/w
parameters atox_n33 = 4e-11
parameters axl_n33 = 3e-9
parameters avth_n33 = 9.5e-3
parameters au0_n33 = 6e-4
parameters scale_mos = 0.9
parameters lef = l*scale_mos
parameters wef = w*scale_mos
parameters dtox_n33_mis = atox_n33*1/sqrt(lef*wef*1e12*mr)*sigma_mis_a*mismod
parameters dxl_n33_mis = axl_n33*1/sqrt(wef*1e6*mr)*sigma_mis_b*mismod
parameters dvth_n33_mis = avth_n33*1/sqrt(lef*wef*1e12*mr)*sigma_mis_c*mismod
parameters du0_n33_mis = au0_n33*1/sqrt(lef*wef*1e12*mr)*sigma_mis_d*mismod
dnw33_4t_ckt (d g s b) n33_mis_ckt w=w l=l sa=sa sb=sb as=as ad=ad ps=ps pd=pd nrd=nrd nrs=nrs m=mr
include "ms011_ms013s_io33_v1p24_mis_spe.mdl"
ends dnw33_4t_ckt

// *1.2v core dnw nmos
inline subckt dnw12_ckt ( 1 2 3 4 5 6 )
parameters w=1e-6 l=1e-6 sa=sar sb=sbr as=asr ad=adr ps=psr pd=pdr nrd=nrdr nrs=nrsr mr=1 mismod=0
parameters dmcgr = 1.9e-7
parameters sar = 2.25e-006
parameters sbr = 2.25e-006
parameters adr = sar*w
parameters asr = sbr*w
parameters pdr = 2*(sar+w)
parameters psr = 2*(sbr+w)
parameters nrdr = dmcgr/w
parameters nrsr = dmcgr/w
parameters atox_n12 = 1.7e-11
parameters axl_n12 = 3e-9
parameters scale_mos = 0.9
parameters lef = l*scale_mos
parameters wef = w*scale_mos
parameters dtox_n12_mis = atox_n12*1/sqrt(lef*wef*1e12*mr)*sigma_mis_a*mismod
parameters dxl_n12_mis = axl_n12*1/sqrt(wef*1e6*mr)*sigma_mis_b*mismod
dnw12_ckt (1 2 3 4) n12_mis_ckt w=w l=l sa=sa sb=sb as=as ad=ad ps=ps pd=pd nrd=nrd nrs=nrs m=mr
include "ms011_ms013s_io33_v1p24_mis_spe.mdl"
ends dnw12_ckt

// *1.2v core dnw hvt nmos
inline subckt dnwhvt12_ckt ( 1 2 3 4 5 6 )
parameters w=1e-6 l=1e-6 sa=sar sb=sbr as=asr ad=adr ps=psr pd=pdr nrd=nrdr nrs=nrsr mr=1
parameters dmcgr = 1.9e-7
parameters sar = 2.25e-006
parameters sbr = 2.25e-006
parameters adr = sar*w
parameters asr = sbr*w
parameters pdr = 2*(sar+w)
parameters psr = 2*(sbr+w)
parameters nrdr = dmcgr/w
parameters nrsr = dmcgr/w
dnwhvt12_ckt (1 2 3 4) nhvt12 w=w l=l sa=sa sb=sb as=as ad=ad ps=ps pd=pd nrd=nrd nrs=nrs m=mr
include "ms011_ms013s_io33_v1p24_spe.mdl"
ends dnwhvt12_ckt

// *1.2v core dnw lvt nmos
inline subckt dnwlvt12_ckt ( 1 2 3 4 5 6 )
parameters w=1e-6 l=1e-6 sa=sar sb=sbr as=asr ad=adr ps=psr pd=pdr nrd=nrdr nrs=nrsr mr=1
parameters dmcgr = 1.9e-7
parameters sar = 2.25e-006
parameters sbr = 2.25e-006
parameters adr = sar*w
parameters asr = sbr*w
parameters pdr = 2*(sar+w)
parameters psr = 2*(sbr+w)
parameters nrdr = dmcgr/w
parameters nrsr = dmcgr/w
dnwlvt12_ckt (1 2 3 4) nlvt12 w=w l=l sa=sa sb=sb as=as ad=ad ps=ps pd=pd nrd=nrd nrs=nrs m=mr
include "ms011_ms013s_io33_v1p24_spe.mdl"
ends dnwlvt12_ckt

// *3.3v io dnw nmos
inline subckt dnw33_ckt ( 1 2 3 4 5 6 )
parameters w=1e-6 l=1e-6 sa=sar sb=sbr as=asr ad=adr ps=psr pd=pdr nrd=nrdr nrs=nrsr mr=1 mismod=0
parameters dmcgr = 2.1e-7
parameters sar = 3.32e-006
parameters sbr = 3.32e-006
parameters adr = sar*w
parameters asr = sbr*w
parameters pdr = 2*(sar+w)
parameters psr = 2*(sbr+w)
parameters nrdr = dmcgr/w
parameters nrsr = dmcgr/w
parameters atox_n33 = 4e-11
parameters axl_n33 = 3e-9
parameters avth_n33 = 9.5e-3
parameters au0_n33 = 6e-4
parameters scale_mos = 0.9
parameters lef = l*scale_mos
parameters wef = w*scale_mos
parameters dtox_n33_mis = atox_n33*1/sqrt(lef*wef*1e12*mr)*sigma_mis_a*mismod
parameters dxl_n33_mis = axl_n33*1/sqrt(wef*1e6*mr)*sigma_mis_b*mismod
parameters dvth_n33_mis = avth_n33*1/sqrt(lef*wef*1e12*mr)*sigma_mis_c*mismod
parameters du0_n33_mis = au0_n33*1/sqrt(lef*wef*1e12*mr)*sigma_mis_d*mismod
dnw33_ckt (1 2 3 4) n33_mis_ckt w=w l=l sa=sa sb=sb as=as ad=ad ps=ps pd=pd nrd=nrd nrs=nrs m=mr
include "ms011_ms013s_io33_v1p24_mis_spe.mdl"
ends dnw33_ckt

// ********************************
// *         bsim  model          *
// ********************************
// *1.2v core nmos
parameters dtox_n12 = 0
parameters dxl_n12 = 0
parameters dxw_n12 = 0
parameters dvth_n12 = 0
parameters dcj_n12 = 0
parameters dcjsw_n12 = 0
parameters dcjswg_n12 = 0
parameters dcgdo_n12 = 0
parameters dcgso_n12 = 0
parameters du0_n12 = 0
parameters dnlx_n12 = 0
parameters dlu0_n12 = 0
parameters dlvsat_n12 = 0
parameters dk3_n12 = 0
parameters dpvth0_n12 = 0
parameters dpu0_n12 = 0
parameters dagidl_n12 = 0
// *1.2v core pmos
parameters dtox_p12 = 0
parameters dxl_p12 = 0
parameters dxw_p12 = 0
parameters dvth_p12 = 0
parameters dcj_p12 = 0
parameters dcjsw_p12 = 0
parameters dcjswg_p12 = 0
parameters dcgdo_p12 = 0
parameters dcgso_p12 = 0
parameters du0_p12 = 0
parameters dnlx_p12 = 0
parameters dlu0_p12 = 0
parameters dlvsat_p12 = 0
parameters dwu0_p12 = 0
parameters dpvth0_p12 = 0
parameters dpu0_p12 = 0
parameters dpvsat_p12 = 0
parameters dagidl_p12 = 0
// *3.3v io nmos
parameters dtox_n33 = 0
parameters dxl_n33 = 0
parameters dxw_n33 = 0
parameters dvth_n33 = 0
parameters dwvth0_n33 = 0
parameters dpvth0_n33 = 0
parameters dlvth0_n33 = 0
parameters du0_n33 = 0
parameters dwu0_n33 = 0
parameters dcj_n33 = 0
parameters dcjsw_n33 = 0
parameters dagidl_n33 = 0
parameters dcjswg_n33 = 0
parameters dcgdo_n33 = 0
parameters dcgso_n33 = 0
parameters dlu0_n33 = 0
parameters dlvsat_n33 = 0
parameters dpu0_n33 = 0
// *3.3v io pmos
parameters dtox_p33 = 0
parameters dxl_p33 = 0
parameters dxw_p33 = 0
parameters dvth_p33 = 0
parameters dwvth0_p33 = 0
parameters dpvth0_p33 = 0
parameters dlvth0_p33 = 0
parameters du0_p33 = 0
parameters dwu0_p33 = 0
parameters dcj_p33 = 0
parameters dcjsw_p33 = 0
parameters dpu0_p33 = 0
parameters dcjswg_p33 = 0
parameters dcgdo_p33 = 0
parameters dcgso_p33 = 0
parameters dlu0_p33 = 0
parameters dlvsat_p33 = 0
parameters dagidl_p33 = 0
parameters dlagidl_p33 = 0
parameters dpvsat_p33 = 0
// *1.2v native nmos
parameters dtox_nt12 = 0
parameters dxl_nt12 = 0
parameters dxw_nt12 = 0
parameters dvth_nt12 = 0
parameters dcj_nt12 = 0
parameters dcjsw_nt12 = 0
parameters dcjswg_nt12 = 0
parameters dcgdo_nt12 = 0
parameters dcgso_nt12 = 0
parameters du0_nt12 = 0
parameters dlvth0_nt12 = 0
parameters dlu0_nt12 = 0
parameters dk3_nt12 = 0
// *3.3v native nmos
parameters dtox_nt33 = 0
parameters dxl_nt33 = 0
parameters dxw_nt33 = 0
parameters dvth_nt33 = 0
parameters dcj_nt33 = 0
parameters dcjsw_nt33 = 0
parameters dcjswg_nt33 = 0
parameters dcgdo_nt33 = 0
parameters dcgso_nt33 = 0
parameters dlvth0_nt33 = 0
parameters dwvth0_nt33 = 0
parameters dpvth0_nt33 = 0
parameters du0_nt33 = 0
parameters dlu0_nt33 = 0
parameters dwu0_nt33 = 0
parameters dpu0_nt33 = 0
parameters dvsat_nt33 = 0
parameters dlvsat_nt33 = 0
parameters dwvsat_nt33 = 0
parameters dpvsat_nt33 = 0
// *1.2v hvt core nmos
parameters dtox_nhvt12 = 0
parameters dxl_nhvt12 = 0
parameters dxw_nhvt12 = 0
parameters dvth_nhvt12 = 0
parameters dcj_nhvt12 = 0
parameters dcjsw_nhvt12 = 0
parameters dcjswg_nhvt12 = 0
parameters dcgdo_nhvt12 = 0
parameters dcgso_nhvt12 = 0
parameters du0_nhvt12 = 0
parameters dnlx_nhvt12 = 0
parameters dlu0_nhvt12 = 0
parameters dlvsat_nhvt12 = 0
parameters dk3_nhvt12 = 0
parameters dpvth0_nhvt12 = 0
parameters dpu0_nhvt12 = 0
parameters dagidl_nhvt12 = 0
// *1.2v hvt core pmos
parameters dtox_phvt12 = 0
parameters dxl_phvt12 = 0
parameters dxw_phvt12 = 0
parameters dvth_phvt12 = 0
parameters dcj_phvt12 = 0
parameters dcjsw_phvt12 = 0
parameters dcjswg_phvt12 = 0
parameters dcgdo_phvt12 = 0
parameters dcgso_phvt12 = 0
parameters du0_phvt12 = 0
parameters dnlx_phvt12 = 0
parameters dlu0_phvt12 = 0
parameters dlvsat_phvt12 = 0
parameters dpvth0_phvt12 = 0
parameters dagidl_phvt12 = 0
parameters dpu0_phvt12 = 0
// *1.2v lvt core nmos
parameters dtox_nlvt12 = 0
parameters dxl_nlvt12 = 0
parameters dxw_nlvt12 = 0
parameters dvth_nlvt12 = 0
parameters dcj_nlvt12 = 0
parameters dcjsw_nlvt12 = 0
parameters dcjswg_nlvt12 = 0
parameters dcgdo_nlvt12 = 0
parameters dcgso_nlvt12 = 0
parameters du0_nlvt12 = 0
parameters dnlx_nlvt12 = 0
parameters dlu0_nlvt12 = 0
parameters dlvsat_nlvt12 = 0
parameters dk3_nlvt12 = 0
parameters dpvth0_nlvt12 = 0
parameters dpu0_nlvt12 = 0
parameters dpvsat_nlvt12 = 0
// *1.2v lvt core pmos
parameters dtox_plvt12 = 0
parameters dxl_plvt12 = 0
parameters dxw_plvt12 = 0
parameters dvth_plvt12 = 0
parameters dcj_plvt12 = 0
parameters dcjsw_plvt12 = 0
parameters dcjswg_plvt12 = 0
parameters dcgdo_plvt12 = 0
parameters dcgso_plvt12 = 0
parameters du0_plvt12 = 0
parameters dnlx_plvt12 = 0
parameters dpvth0_plvt12 = 0
parameters dvsat_plvt12 = 0
parameters dpub_plvt12 = 0
parameters dpvsat_plvt12 = 0
parameters dagidl_plvt12 = 0
include "ms011_ms013s_io33_v1p24_spe.mdl"
endsection tt

section ff
setoption1 options gmin=1e-14 scale =0.9
parameters sigma_mis_a = 0
parameters sigma_mis_b = 0
parameters sigma_mis_c = 0
parameters sigma_mis_d = 0
statistics {

    mismatch {

     vary sigma_mis_a dist=gauss std=1/1
     vary sigma_mis_b dist=gauss std=1/1
     vary sigma_mis_c dist=gauss std=1/1
     vary sigma_mis_d dist=gauss std=1/1

           }
      }
// *1.2v core nmos
inline subckt n12_mis_ckt ( d g s b )
parameters w=1e-6 l=1e-6 sa=sar sb=sbr as=asr ad=adr ps=psr pd=pdr nrd=nrdr nrs=nrsr mr=1 mismod=0
parameters dmcgr = 1.9e-7
parameters sar = 2.25e-006
parameters sbr = 2.25e-006
parameters adr = sar*w
parameters asr = sbr*w
parameters pdr = 2*(sar+w)
parameters psr = 2*(sbr+w)
parameters nrdr = dmcgr/w
parameters nrsr = dmcgr/w
parameters atox_n12 = 1.7e-11
parameters axl_n12 = 3e-9
parameters scale_mos = 0.9
parameters lef = l*scale_mos
parameters wef = w*scale_mos
parameters dtox_n12_mis = atox_n12*1/sqrt(lef*wef*1e12*mr)*sigma_mis_a*mismod
parameters dxl_n12_mis = axl_n12*1/sqrt(wef*1e6*mr)*sigma_mis_b*mismod
n12_mis_ckt (d g s b) n12_mis_ckt w=w l=l sa=sa sb=sb as=as ad=ad ps=ps pd=pd nrd=nrd nrs=nrs m=mr
include "ms011_ms013s_io33_v1p24_mis_spe.mdl"
ends n12_mis_ckt

// *1.2v core pmos
inline subckt p12_mis_ckt ( d g s b )
parameters w=1e-6 l=1e-6 sa=sar sb=sbr as=asr ad=adr ps=psr pd=pdr nrd=nrdr nrs=nrsr mr=1 mismod=0
parameters dmcgr = 1.9e-7
parameters sar = 2.25e-006
parameters sbr = 2.25e-006
parameters adr = sar*w
parameters asr = sbr*w
parameters pdr = 2*(sar+w)
parameters psr = 2*(sbr+w)
parameters nrdr = dmcgr/w
parameters nrsr = dmcgr/w
parameters atox_p12 = 2.85e-11
parameters axl_p12 = 8e-10
parameters scale_mos = 0.9
parameters lef = l*scale_mos
parameters wef = w*scale_mos
parameters dtox_p12_mis = atox_p12*1/sqrt(lef*wef*1e12*mr)*sigma_mis_a*mismod
parameters dxl_p12_mis = axl_p12*1/sqrt(wef*1e6*mr)*sigma_mis_b*mismod
p12_mis_ckt (d g s b) p12_mis_ckt w=w l=l sa=sa sb=sb as=as ad=ad ps=ps pd=pd nrd=nrd nrs=nrs m=mr
include "ms011_ms013s_io33_v1p24_mis_spe.mdl"
ends p12_mis_ckt

// *3.3v core nmos
inline subckt n33_mis_ckt ( d g s b )
parameters w=1e-6 l=1e-6 sa=sar sb=sbr as=asr ad=adr ps=psr pd=pdr nrd=nrdr nrs=nrsr mr=1 mismod=0
parameters dmcgr = 2.1e-7
parameters sar = 3.32e-006
parameters sbr = 3.32e-006
parameters adr = sar*w
parameters asr = sbr*w
parameters pdr = 2*(sar+w)
parameters psr = 2*(sbr+w)
parameters nrdr = dmcgr/w
parameters nrsr = dmcgr/w
parameters atox_n33 = 4e-11
parameters axl_n33 = 3e-9
parameters avth_n33 = 9.5e-3
parameters au0_n33 = 6e-4
parameters scale_mos = 0.9
parameters lef = l*scale_mos
parameters wef = w*scale_mos
parameters dtox_n33_mis = atox_n33*1/sqrt(lef*wef*1e12*mr)*sigma_mis_a*mismod
parameters dxl_n33_mis = axl_n33*1/sqrt(wef*1e6*mr)*sigma_mis_b*mismod
parameters dvth_n33_mis = avth_n33*1/sqrt(lef*wef*1e12*mr)*sigma_mis_c*mismod
parameters du0_n33_mis = au0_n33*1/sqrt(lef*wef*1e12*mr)*sigma_mis_d*mismod
n33_mis_ckt (d g s b) n33_mis_ckt w=w l=l sa=sa sb=sb as=as ad=ad ps=ps pd=pd nrd=nrd nrs=nrs m=mr
include "ms011_ms013s_io33_v1p24_mis_spe.mdl"
ends n33_mis_ckt

// *3.3v core pmos
inline subckt p33_mis_ckt ( d g s b )
parameters w=1e-6 l=1e-6 sa=sar sb=sbr as=asr ad=adr ps=psr pd=pdr nrd=nrdr nrs=nrsr mr=1 mismod=0
parameters dmcgr = 2.1e-7
parameters sar = 3.32e-006
parameters sbr = 3.32e-006
parameters adr = sar*w
parameters asr = sbr*w
parameters pdr = 2*(sar+w)
parameters psr = 2*(sbr+w)
parameters nrdr = dmcgr/w
parameters nrsr = dmcgr/w
parameters atox_p33 = 3e-11
parameters axl_p33 = 3e-10
parameters avth_p33 = 3.5e-3
parameters au0_p33 = 1e-4
parameters scale_mos = 0.9
parameters lef = l*scale_mos
parameters wef = w*scale_mos
parameters dtox_p33_mis = atox_p33*1/sqrt(lef*wef*1e12*mr)*sigma_mis_a*mismod
parameters dxl_p33_mis = axl_p33*1/sqrt(wef*1e6*mr)*sigma_mis_b*mismod
parameters dvth_p33_mis = avth_p33*1/sqrt(lef*wef*1e12*mr)*sigma_mis_c*mismod
parameters du0_p33_mis = au0_p33*1/sqrt(lef*wef*1e12*mr)*sigma_mis_d*mismod
p33_mis_ckt (d g s b) p33_mis_ckt w=w l=l sa=sa sb=sb as=as ad=ad ps=ps pd=pd nrd=nrd nrs=nrs m=mr
include "ms011_ms013s_io33_v1p24_mis_spe.mdl"
ends p33_mis_ckt

// *1.2v core dnw nmos
inline subckt dnw12_4t_ckt ( d g s b )
parameters w=1e-6 l=1e-6 sa=sar sb=sbr as=asr ad=adr ps=psr pd=pdr nrd=nrdr nrs=nrsr mr=1 mismod=0
parameters dmcgr = 1.9e-7
parameters sar = 2.25e-006
parameters sbr = 2.25e-006
parameters adr = sar*w
parameters asr = sbr*w
parameters pdr = 2*(sar+w)
parameters psr = 2*(sbr+w)
parameters nrdr = dmcgr/w
parameters nrsr = dmcgr/w
parameters atox_n12 = 1.7e-11
parameters axl_n12 = 3e-9
parameters scale_mos = 0.9
parameters lef = l*scale_mos
parameters wef = w*scale_mos
parameters dtox_n12_mis = atox_n12*1/sqrt(lef*wef*1e12*mr)*sigma_mis_a*mismod
parameters dxl_n12_mis = axl_n12*1/sqrt(wef*1e6*mr)*sigma_mis_b*mismod
dnw12_4t_ckt (d g s b) n12_mis_ckt w=w l=l sa=sa sb=sb as=as ad=ad ps=ps pd=pd nrd=nrd nrs=nrs m=mr
include "ms011_ms013s_io33_v1p24_mis_spe.mdl"
ends dnw12_4t_ckt

// *1.2v core dnw hvt nmos
inline subckt dnwhvt12_4t_ckt ( d g s b )
parameters w=1e-6 l=1e-6 sa=sar sb=sbr as=asr ad=adr ps=psr pd=pdr nrd=nrdr nrs=nrsr mr=1
parameters dmcgr = 1.9e-7
parameters sar = 2.25e-006
parameters sbr = 2.25e-006
parameters adr = sar*w
parameters asr = sbr*w
parameters pdr = 2*(sar+w)
parameters psr = 2*(sbr+w)
parameters nrdr = dmcgr/w
parameters nrsr = dmcgr/w
dnwhvt12_4t_ckt (d g s b) nhvt12 w=w l=l sa=sa sb=sb as=as ad=ad ps=ps pd=pd nrd=nrd nrs=nrs m=mr
include "ms011_ms013s_io33_v1p24_spe.mdl"
ends dnwhvt12_4t_ckt

// *1.2v core dnw lvt nmos
inline subckt dnwlvt12_4t_ckt ( d g s b )
parameters w=1e-6 l=1e-6 sa=sar sb=sbr as=asr ad=adr ps=psr pd=pdr nrd=nrdr nrs=nrsr mr=1
parameters dmcgr = 1.9e-7
parameters sar = 2.25e-006
parameters sbr = 2.25e-006
parameters adr = sar*w
parameters asr = sbr*w
parameters pdr = 2*(sar+w)
parameters psr = 2*(sbr+w)
parameters nrdr = dmcgr/w
parameters nrsr = dmcgr/w
dnwlvt12_4t_ckt (d g s b) nlvt12 w=w l=l sa=sa sb=sb as=as ad=ad ps=ps pd=pd nrd=nrd nrs=nrs m=mr
include "ms011_ms013s_io33_v1p24_spe.mdl"
ends dnwlvt12_4t_ckt

// *3.3v io dnw nmos
inline subckt dnw33_4t_ckt ( d g s b )
parameters w=1e-6 l=1e-6 sa=sar sb=sbr as=asr ad=adr ps=psr pd=pdr nrd=nrdr nrs=nrsr mr=1 mismod=0
parameters dmcgr = 2.1e-7
parameters sar = 3.32e-006
parameters sbr = 3.32e-006
parameters adr = sar*w
parameters asr = sbr*w
parameters pdr = 2*(sar+w)
parameters psr = 2*(sbr+w)
parameters nrdr = dmcgr/w
parameters nrsr = dmcgr/w
parameters atox_n33 = 4e-11
parameters axl_n33 = 3e-9
parameters avth_n33 = 9.5e-3
parameters au0_n33 = 6e-4
parameters scale_mos = 0.9
parameters lef = l*scale_mos
parameters wef = w*scale_mos
parameters dtox_n33_mis = atox_n33*1/sqrt(lef*wef*1e12*mr)*sigma_mis_a*mismod
parameters dxl_n33_mis = axl_n33*1/sqrt(wef*1e6*mr)*sigma_mis_b*mismod
parameters dvth_n33_mis = avth_n33*1/sqrt(lef*wef*1e12*mr)*sigma_mis_c*mismod
parameters du0_n33_mis = au0_n33*1/sqrt(lef*wef*1e12*mr)*sigma_mis_d*mismod
dnw33_4t_ckt (d g s b) n33_mis_ckt w=w l=l sa=sa sb=sb as=as ad=ad ps=ps pd=pd nrd=nrd nrs=nrs m=mr
include "ms011_ms013s_io33_v1p24_mis_spe.mdl"
ends dnw33_4t_ckt

// *1.2v core dnw nmos
inline subckt dnw12_ckt ( 1 2 3 4 5 6 )
parameters w=1e-6 l=1e-6 sa=sar sb=sbr as=asr ad=adr ps=psr pd=pdr nrd=nrdr nrs=nrsr mr=1 mismod=0
parameters dmcgr = 1.9e-7
parameters sar = 2.25e-006
parameters sbr = 2.25e-006
parameters adr = sar*w
parameters asr = sbr*w
parameters pdr = 2*(sar+w)
parameters psr = 2*(sbr+w)
parameters nrdr = dmcgr/w
parameters nrsr = dmcgr/w
parameters atox_n12 = 1.7e-11
parameters axl_n12 = 3e-9
parameters scale_mos = 0.9
parameters lef = l*scale_mos
parameters wef = w*scale_mos
parameters dtox_n12_mis = atox_n12*1/sqrt(lef*wef*1e12*mr)*sigma_mis_a*mismod
parameters dxl_n12_mis = axl_n12*1/sqrt(wef*1e6*mr)*sigma_mis_b*mismod
dnw12_ckt (1 2 3 4) n12_mis_ckt w=w l=l sa=sa sb=sb as=as ad=ad ps=ps pd=pd nrd=nrd nrs=nrs m=mr
include "ms011_ms013s_io33_v1p24_mis_spe.mdl"
ends dnw12_ckt

// *1.2v core dnw hvt nmos
inline subckt dnwhvt12_ckt ( 1 2 3 4 5 6 )
parameters w=1e-6 l=1e-6 sa=sar sb=sbr as=asr ad=adr ps=psr pd=pdr nrd=nrdr nrs=nrsr mr=1
parameters dmcgr = 1.9e-7
parameters sar = 2.25e-006
parameters sbr = 2.25e-006
parameters adr = sar*w
parameters asr = sbr*w
parameters pdr = 2*(sar+w)
parameters psr = 2*(sbr+w)
parameters nrdr = dmcgr/w
parameters nrsr = dmcgr/w
dnwhvt12_ckt (1 2 3 4) nhvt12 w=w l=l sa=sa sb=sb as=as ad=ad ps=ps pd=pd nrd=nrd nrs=nrs m=mr
include "ms011_ms013s_io33_v1p24_spe.mdl"
ends dnwhvt12_ckt

// *1.2v core dnw lvt nmos
inline subckt dnwlvt12_ckt ( 1 2 3 4 5 6 )
parameters w=1e-6 l=1e-6 sa=sar sb=sbr as=asr ad=adr ps=psr pd=pdr nrd=nrdr nrs=nrsr mr=1
parameters dmcgr = 1.9e-7
parameters sar = 2.25e-006
parameters sbr = 2.25e-006
parameters adr = sar*w
parameters asr = sbr*w
parameters pdr = 2*(sar+w)
parameters psr = 2*(sbr+w)
parameters nrdr = dmcgr/w
parameters nrsr = dmcgr/w
dnwlvt12_ckt (1 2 3 4) nlvt12 w=w l=l sa=sa sb=sb as=as ad=ad ps=ps pd=pd nrd=nrd nrs=nrs m=mr
include "ms011_ms013s_io33_v1p24_spe.mdl"
ends dnwlvt12_ckt

// *3.3v io dnw nmos
inline subckt dnw33_ckt ( 1 2 3 4 5 6 )
parameters w=1e-6 l=1e-6 sa=sar sb=sbr as=asr ad=adr ps=psr pd=pdr nrd=nrdr nrs=nrsr mr=1 mismod=0
parameters dmcgr = 2.1e-7
parameters sar = 3.32e-006
parameters sbr = 3.32e-006
parameters adr = sar*w
parameters asr = sbr*w
parameters pdr = 2*(sar+w)
parameters psr = 2*(sbr+w)
parameters nrdr = dmcgr/w
parameters nrsr = dmcgr/w
parameters atox_n33 = 4e-11
parameters axl_n33 = 3e-9
parameters avth_n33 = 9.5e-3
parameters au0_n33 = 6e-4
parameters scale_mos = 0.9
parameters lef = l*scale_mos
parameters wef = w*scale_mos
parameters dtox_n33_mis = atox_n33*1/sqrt(lef*wef*1e12*mr)*sigma_mis_a*mismod
parameters dxl_n33_mis = axl_n33*1/sqrt(wef*1e6*mr)*sigma_mis_b*mismod
parameters dvth_n33_mis = avth_n33*1/sqrt(lef*wef*1e12*mr)*sigma_mis_c*mismod
parameters du0_n33_mis = au0_n33*1/sqrt(lef*wef*1e12*mr)*sigma_mis_d*mismod
dnw33_ckt (1 2 3 4) n33_mis_ckt w=w l=l sa=sa sb=sb as=as ad=ad ps=ps pd=pd nrd=nrd nrs=nrs m=mr
include "ms011_ms013s_io33_v1p24_mis_spe.mdl"
ends dnw33_ckt

// ********************************
// *          bsim  model         *
// ********************************
// *1.2v core nmos
parameters dtox_n12 = -4e-11
parameters dxl_n12 = -7.00e-9
parameters dxw_n12 = 1.5e-8
parameters dvth_n12 = -0.0045
parameters dcj_n12 = -6.575e-5
parameters dcjsw_n12 = -5.2e-12
parameters dcjswg_n12 = -2.435e-11
parameters dcgdo_n12 = 1.8e-11
parameters dcgso_n12 = 1.8e-11
parameters du0_n12 = 2.0e-4
parameters dnlx_n12 = -7.0e-9
parameters dlu0_n12 = 9.0e-11
parameters dlvsat_n12 = 0
parameters dk3_n12 = -0.15
parameters dpvth0_n12 = -1.7e-15
parameters dpu0_n12 = -6.0e-17
parameters dagidl_n12 = 3.1e-011
// *1.2v core pmos
parameters dtox_p12 = -4e-11
parameters dxl_p12 = -7.00e-9
parameters dxw_p12 = 1.5e-8
parameters dvth_p12 = 0.020
parameters dcj_p12 = -6.1e-5
parameters dcjsw_p12 = -3.765e-12
parameters dcjswg_p12 = -2.335e-11
parameters dcgdo_p12 = 2.17e-11
parameters dcgso_p12 = 2.17e-11
parameters du0_p12 = 1.2e-4
parameters dnlx_p12 = -2.1e-8
parameters dlu0_p12 = 0
parameters dlvsat_p12 = 0
parameters dwu0_p12 = 0
parameters dpvth0_p12 = 2.6e-15
parameters dpu0_p12 = -7e-17
parameters dpvsat_p12 = -3e-9
parameters dagidl_p12 = 3.1e-012
// *3.3v io nmos
parameters dtox_n33 = -3e-010
parameters dxl_n33 = -1.8e-8
parameters dxw_n33 = 2.0e-8
parameters dvth_n33 = -0.0358
parameters dwvth0_n33 = -7.4e-009
parameters dpvth0_n33 = 6.4e-016
parameters dlvth0_n33 = -3.3633e-009
parameters du0_n33 = 0.0005
parameters dwu0_n33 = 0
parameters dcj_n33 = -4.500e-5
parameters dcjsw_n33 = -6.35e-12
parameters dagidl_n33 = 4.5e-13
parameters dcjswg_n33 = -2.03e-11
parameters dcgdo_n33 = 1.34e-11
parameters dcgso_n33 = 1.34e-11
parameters dlu0_n33 = 7.4426e-010
parameters dlvsat_n33 = 0.0006
parameters dpu0_n33 = 0
// *3.3v io pmos
parameters dtox_p33 = -3e-010
parameters dxl_p33 = -1.8e-8
parameters dxw_p33 = 2.0e-8
parameters dvth_p33 = 0.0277
parameters dwvth0_p33 = 1.17e-008
parameters dpvth0_p33 = -1.52e-015
parameters dlvth0_p33 = 1.9400e-009
parameters du0_p33 = 0.00015
parameters dwu0_p33 = -4.6e-011
parameters dcj_p33 = -6.1e-5
parameters dcjsw_p33 = -2.28e-12
parameters dlagidl_p33 = 1e-017
parameters dcjswg_p33 = -2.35e-11
parameters dcgdo_p33 = 1.52e-11
parameters dcgso_p33 = 1.55e-11
parameters dlu0_p33 = -3.2000e-011
parameters dlvsat_p33 = -0.0017
parameters dpu0_p33 = 1.5e-017
parameters dagidl_p33 = 2e-012
parameters dpvsat_p33 = 1.2e-9
// *1.2v native nmos
parameters dtox_nt12 = -4e-11
parameters dxl_nt12 = -7e-9
parameters dxw_nt12 = 1.5e-8
parameters dvth_nt12 = -0.026
parameters dcj_nt12 = -7.9e-6
parameters dcjsw_nt12 = -5.4e-12
parameters dcjswg_nt12 = -1.965e-11
parameters dcgdo_nt12 = 1.66e-11
parameters dcgso_nt12 = 1.66e-11
parameters du0_nt12 = 3.0e-3
parameters dlvth0_nt12 = -3.2e-9
parameters dlu0_nt12 = 3.5e-10
parameters dk3_nt12 = -4.5
// *3.3v native nmos
parameters dtox_nt33 = -5e-10
parameters dxl_nt33 = -1.8e-8
parameters dxw_nt33 = 2.0e-8
parameters dvth_nt33 = -0.06945
parameters dcj_nt33 = -6.85e-6
parameters dcjsw_nt33 = -2.96e-12
parameters dcjswg_nt33 = -6.10e-12
parameters dcgdo_nt33 = 1.61e-11
parameters dcgso_nt33 = 1.61e-11
parameters dlvth0_nt33 = -2.018e-008
parameters dwvth0_nt33 = -6.61e-009
parameters dpvth0_nt33 = 2.515e-015
parameters du0_nt33 = 0.00222
parameters dlu0_nt33 = 1.214e-009
parameters dwu0_nt33 = -6.383e-010
parameters dpu0_nt33 = 2.56e-016
parameters dvsat_nt33 = 21610
parameters dlvsat_nt33 = -0.02244
parameters dwvsat_nt33 = -0.016359
parameters dpvsat_nt33 = 1.45e-008
// *1.2v hvt core nmos
parameters dtox_nhvt12 = -4e-11
parameters dxl_nhvt12 = -7.00e-9
parameters dxw_nhvt12 = 1.5e-8
parameters dvth_nhvt12 = -0.008
parameters dcj_nhvt12 = -7.97e-5
parameters dcjsw_nhvt12 = -5.35e-12
parameters dcjswg_nhvt12 = -2.52e-11
parameters dcgdo_nhvt12 = 1.88e-11
parameters dcgso_nhvt12 = 1.88e-11
parameters du0_nhvt12 = 2.0e-4
parameters dnlx_nhvt12 = -7.0e-9
parameters dlu0_nhvt12 = 9.0e-11
parameters dlvsat_nhvt12 = 0
parameters dk3_nhvt12 = -0.15
parameters dpvth0_nhvt12 = -2.6e-15
parameters dpu0_nhvt12 = -1.8e-16
parameters dagidl_nhvt12 = 6e-012
// *1.2v hvt core pmos
parameters dtox_phvt12 = -4e-11
parameters dxl_phvt12 = -7.00e-9
parameters dxw_phvt12 = 1.5e-8
parameters dvth_phvt12 = 0.02