****Sub-Circuit for AC1CINHSV1, Thu Jan 20 09:48:40 CST 2011****
.SUBCKT AC1CINHSV1 A B CIN CO VDD VSS
MM41 net0196 CIN net78 VPW N12LL W=180.00n L=60.00n
MM42 net0144 cinn net78 VPW N12LL W=180.00n L=60.00n
MM3 net0144 A VSS VPW N12LL W=180.00n L=60.00n
MM2 net0144 B VSS VPW N12LL W=180.00n L=60.00n
MM10 net0124 B VSS VPW N12LL W=220.00n L=60.00n
MM11 net0196 A net0124 VPW N12LL W=220.00n L=60.00n
MM27 cinn CIN VSS VPW N12LL W=180.00n L=60.00n
MM22 CO net78 VSS VPW N12LL W=350.00n L=60.00n
MM43 net0196 cinn net78 VNW P12LL W=220.00n L=60.00n
MM44 net0144 CIN net78 VNW P12LL W=220.00n L=60.00n
MM12 net0196 A VDD VNW P12LL W=180.00n L=60.00n
MM13 net0196 B VDD VNW P12LL W=180.00n L=60.00n
MM28 cinn CIN VDD VNW P12LL W=220.00n L=60.00n
MM21 CO net78 VDD VNW P12LL W=440.00n L=60.00n
MM4 net0144 A net0215 VNW P12LL W=250.00n L=60.00n
MM5 net0215 B VDD VNW P12LL W=250.00n L=60.00n
.ENDS AC1CINHSV1
****Sub-Circuit for AC1CINHSV2, Thu Jan 20 09:48:40 CST 2011****
.SUBCKT AC1CINHSV2 A B CIN CO VDD VSS
MM41 net0196 CIN net78 VPW N12LL W=220.00n L=60.00n
MM42 net0144 cinn net78 VPW N12LL W=220.00n L=60.00n
MM3 net0144 A VSS VPW N12LL W=180.00n L=60.00n
MM2 net0144 B VSS VPW N12LL W=180.00n L=60.00n
MM10 net0124 B VSS VPW N12LL W=260.00n L=60.00n
MM11 net0196 A net0124 VPW N12LL W=260.00n L=60.00n
MM27 cinn CIN VSS VPW N12LL W=220.00n L=60.00n
MM22 CO net78 VSS VPW N12LL W=430.00n L=60.00n
MM43 net0196 cinn net78 VNW P12LL W=270.00n L=60.00n
MM44 net0144 CIN net78 VNW P12LL W=270.00n L=60.00n
MM12 net0196 A VDD VNW P12LL W=220.00n L=60.00n
MM13 net0196 B VDD VNW P12LL W=220.00n L=60.00n
MM28 cinn CIN VDD VNW P12LL W=270.00n L=60.00n
MM21 CO net78 VDD VNW P12LL W=540.00n L=60.00n
MM4 net0144 A net0215 VNW P12LL W=280.00n L=60.00n
MM5 net0215 B VDD VNW P12LL W=280.00n L=60.00n
.ENDS AC1CINHSV2
****Sub-Circuit for AC1CINHSV4, Thu Jan 20 09:48:40 CST 2011****
.SUBCKT AC1CINHSV4 A B CIN CO VDD VSS
MM41 net0196 CIN net78 VPW N12LL W=430.00n L=60.00n
MM42 net0144 cinn net78 VPW N12LL W=430.00n L=60.00n
MM3 net0144 A VSS VPW N12LL W=240.00n L=60.00n
MM2 net0144 B VSS VPW N12LL W=240.00n L=60.00n
MM10 net0124 B VSS VPW N12LL W=430.00n L=60.00n
MM11 net0196 A net0124 VPW N12LL W=430.00n L=60.00n
MM27 cinn CIN VSS VPW N12LL W=220.00n L=60.00n
MM22 CO net78 VSS VPW N12LL W=860.00n L=60.00n
MM43 net0196 cinn net78 VNW P12LL W=540.00n L=60.00n
MM44 net0144 CIN net78 VNW P12LL W=540.00n L=60.00n
MM12 net0196 A VDD VNW P12LL W=420.00n L=60.00n
MM13 net0196 B VDD VNW P12LL W=420.00n L=60.00n
MM28 cinn CIN VDD VNW P12LL W=270.00n L=60.00n
MM21 CO net78 VDD VNW P12LL W=1.08u L=60.00n
MM4 net0144 A net0215 VNW P12LL W=440.00n L=60.00n
MM5 net0215 B VDD VNW P12LL W=440.00n L=60.00n
.ENDS AC1CINHSV4
****Sub-Circuit for AC1CONHSV1, Thu May 19 13:57:40 CST 2011****
.SUBCKT AC1CONHSV1 A B CI CON VDD VSS
MM16 net0133 net0286 VSS VPW N12LL W=180.00n L=60.00n
MM41 net0196 cin net78 VPW N12LL W=180.00n L=60.00n
MM42 net0133 CI net78 VPW N12LL W=180.00n L=60.00n
MM3 net0286 A VSS VPW N12LL W=180.00n L=60.00n
MM2 net0286 B VSS VPW N12LL W=180.00n L=60.00n
MM14 net0196 net0193 VSS VPW N12LL W=180.00n L=60.00n
MM10 net0124 B VSS VPW N12LL W=220.00n L=60.00n
MM11 net0193 A net0124 VPW N12LL W=220.00n L=60.00n
MM27 cin CI VSS VPW N12LL W=180.00n L=60.00n
MM22 CON net78 VSS VPW N12LL W=350.00n L=60.00n
MM17 net0133 net0286 VDD VNW P12LL W=220.00n L=60.00n
MM43 net0196 CI net78 VNW P12LL W=220.00n L=60.00n
MM44 net0133 cin net78 VNW P12LL W=220.00n L=60.00n
MM15 net0196 net0193 VDD VNW P12LL W=220.00n L=60.00n
MM12 net0193 A VDD VNW P12LL W=180.00n L=60.00n
MM13 net0193 B VDD VNW P12LL W=180.00n L=60.00n
MM28 cin CI VDD VNW P12LL W=220.00n L=60.00n
MM21 CON net78 VDD VNW P12LL W=440.00n L=60.00n
MM4 net0286 A net0215 VNW P12LL W=250.00n L=60.00n
MM5 net0215 B VDD VNW P12LL W=250.00n L=60.00n
.ENDS AC1CONHSV1
****Sub-Circuit for AC1CONHSV2, Thu Jan 20 09:48:40 CST 2011****
.SUBCKT AC1CONHSV2 A B CI CON VDD VSS
MM16 net0133 net0286 VSS VPW N12LL W=220.00n L=60.00n
MM41 net0196 cin net78 VPW N12LL W=220.00n L=60.00n
MM42 net0133 CI net78 VPW N12LL W=220.00n L=60.00n
MM3 net0286 A VSS VPW N12LL W=180.00n L=60.00n
MM2 net0286 B VSS VPW N12LL W=180.00n L=60.00n
MM14 net0196 net0193 VSS VPW N12LL W=220.00n L=60.00n
MM10 net0124 B VSS VPW N12LL W=260.00n L=60.00n
MM11 net0193 A net0124 VPW N12LL W=260.00n L=60.00n
MM27 cin CI VSS VPW N12LL W=220.00n L=60.00n
MM22 CON net78 VSS VPW N12LL W=430.00n L=60.00n
MM17 net0133 net0286 VDD VNW P12LL W=270.00n L=60.00n
MM43 net0196 CI net78 VNW P12LL W=270.00n L=60.00n
MM44 net0133 cin net78 VNW P12LL W=270.00n L=60.00n
MM15 net0196 net0193 VDD VNW P12LL W=270.00n L=60.00n
MM12 net0193 A VDD VNW P12LL W=220.00n L=60.00n
MM13 net0193 B VDD VNW P12LL W=220.00n L=60.00n
MM28 cin CI VDD VNW P12LL W=270.00n L=60.00n
MM21 CON net78 VDD VNW P12LL W=540.00n L=60.00n
MM4 net0286 A net0215 VNW P12LL W=280.00n L=60.00n
MM5 net0215 B VDD VNW P12LL W=280.00n L=60.00n
.ENDS AC1CONHSV2
****Sub-Circuit for AC1CONHSV4, Thu Jan 20 09:48:40 CST 2011****
.SUBCKT AC1CONHSV4 A B CI CON VDD VSS
MM16 net0133 net0286 VSS VPW N12LL W=430.00n L=60.00n
MM41 net0196 cin net78 VPW N12LL W=430.00n L=60.00n
MM42 net0133 CI net78 VPW N12LL W=430.00n L=60.00n
MM3 net0286 A VSS VPW N12LL W=240.00n L=60.00n
MM2 net0286 B VSS VPW N12LL W=240.00n L=60.00n
MM14 net0196 net0193 VSS VPW N12LL W=430.00n L=60.00n
MM10 net0124 B VSS VPW N12LL W=430.00n L=60.00n
MM11 net0193 A net0124 VPW N12LL W=430.00n L=60.00n
MM27 cin CI VSS VPW N12LL W=220.00n L=60.00n
MM22 CON net78 VSS VPW N12LL W=860.00n L=60.00n
MM17 net0133 net0286 VDD VNW P12LL W=540.00n L=60.00n
MM43 net0196 CI net78 VNW P12LL W=540.00n L=60.00n
MM44 net0133 cin net78 VNW P12LL W=540.00n L=60.00n
MM15 net0196 net0193 VDD VNW P12LL W=540.00n L=60.00n
MM12 net0193 A VDD VNW P12LL W=440.00n L=60.00n
MM13 net0193 B VDD VNW P12LL W=440.00n L=60.00n
MM28 cin CI VDD VNW P12LL W=270.00n L=60.00n
MM21 CON net78 VDD VNW P12LL W=1.08u L=60.00n
MM4 net0286 A net0215 VNW P12LL W=440.00n L=60.00n
MM5 net0215 B VDD VNW P12LL W=440.00n L=60.00n
.ENDS AC1CONHSV4
****Sub-Circuit for AC2CINHSV1, Thu Jan 20 09:48:40 CST 2011****
.SUBCKT AC2CINHSV1 A B CI0N CI1N CO0 CO1 VDD VSS
MM51 ci1nn CI1N VSS VPW N12LL W=180.00n L=60.00n
MM48 ci0nn CI0N VSS VPW N12LL W=180.00n L=60.00n
MM3 norab A VSS VPW N12LL W=180.00n L=60.00n
MM18 net0132 B VSS VPW N12LL W=260.00n L=60.00n
MM23 nandab A net0132 VPW N12LL W=260.00n L=60.00n
MM2 norab B VSS VPW N12LL W=180.00n L=60.00n
MM26 nandab CI0N net0143 VPW N12LL W=180.00n L=60.00n
MM29 norab ci0nn net0143 VPW N12LL W=180.00n L=60.00n
MM30 CO0 net0143 VSS VPW N12LL W=350.00n L=60.00n
MM34 nandab CI1N net0155 VPW N12LL W=180.00n L=60.00n
MM35 norab ci1nn net0155 VPW N12LL W=180.00n L=60.00n
MM37 CO1 net0155 VSS VPW N12LL W=350.00n L=60.00n
MM50 ci1nn CI1N VDD VNW P12LL W=220.00n L=60.00n
MM49 ci0nn CI0N VDD VNW P12LL W=220.00n L=60.00n
MM24 nandab A VDD VNW P12LL W=220.00n L=60.00n
MM25 nandab B VDD VNW P12LL W=220.00n L=60.00n
MM31 nandab ci0nn net0143 VNW P12LL W=220.00n L=60.00n
MM32 norab CI0N net0143 VNW P12LL W=220.00n L=60.00n
MM33 CO0 net0143 VDD VNW P12LL W=440.00n L=60.00n
MM4 norab A net0215 VNW P12LL W=280.00n L=60.00n
MM45 nandab ci1nn net0155 VNW P12LL W=220.00n L=60.00n
MM46 norab CI1N net0155 VNW P12LL W=220.00n L=60.00n
MM47 CO1 net0155 VDD VNW P12LL W=440.00n L=60.00n
MM5 net0215 B VDD VNW P12LL W=280.00n L=60.00n
.ENDS AC2CINHSV1
****Sub-Circuit for AC2CINHSV2, Thu Jan 20 09:48:40 CST 2011****
.SUBCKT AC2CINHSV2 A B CI0N CI1N CO0 CO1 VDD VSS
MM51 ci1nn CI1N VSS VPW N12LL W=220.00n L=60.00n
MM48 ci0nn CI0N VSS VPW N12LL W=220.00n L=60.00n
MM3 norab A VSS VPW N12LL W=240.00n L=60.00n
MM18 net0132 B VSS VPW N12LL W=430.00n L=60.00n
MM23 nandab A net0132 VPW N12LL W=430.00n L=60.00n
MM2 norab B VSS VPW N12LL W=240.00n L=60.00n
MM26 nandab CI0N net0143 VPW N12LL W=220.00n L=60.00n
MM29 norab ci0nn net0143 VPW N12LL W=220.00n L=60.00n
MM30 CO0 net0143 VSS VPW N12LL W=430.00n L=60.00n
MM34 nandab CI1N net0155 VPW N12LL W=220.00n L=60.00n
MM35 norab ci1nn net0155 VPW N12LL W=220.00n L=60.00n
MM37 CO1 net0155 VSS VPW N12LL W=430.00n L=60.00n
MM50 ci1nn CI1N VDD VNW P12LL W=270.00n L=60.00n
MM49 ci0nn CI0N VDD VNW P12LL W=270.00n L=60.00n
MM24 nandab A VDD VNW P12LL W=440.00n L=60.00n
MM25 nandab B VDD VNW P12LL W=440.00n L=60.00n
MM31 nandab ci0nn net0143 VNW P12LL W=270.00n L=60.00n
MM32 norab CI0N net0143 VNW P12LL W=270.00n L=60.00n
MM33 CO0 net0143 VDD VNW P12LL W=540.00n L=60.00n
MM4 norab A net0215 VNW P12LL W=440.00n L=60.00n
MM45 nandab ci1nn net0155 VNW P12LL W=270.00n L=60.00n
MM46 norab CI1N net0155 VNW P12LL W=270.00n L=60.00n
MM47 CO1 net0155 VDD VNW P12LL W=540.00n L=60.00n
MM5 net0215 B VDD VNW P12LL W=440.00n L=60.00n
.ENDS AC2CINHSV2
****Sub-Circuit for AC2CINHSV4, Mon Jan 24 17:06:27 CST 2011****
.SUBCKT AC2CINHSV4 A B CI0N CI1N CO0 CO1 VDD VSS
MM51 ci1nn CI1N VSS VPW N12LL W=220.00n L=60.00n
MM48 ci0nn CI0N VSS VPW N12LL W=220.00n L=60.00n
MM3 norab A VSS VPW N12LL W=480.00n L=60.00n
MM18 net0132 B VSS VPW N12LL W=860.00n L=60.00n
MM23 nandab A net0132 VPW N12LL W=860.00n L=60.00n
MM2 norab B VSS VPW N12LL W=480.00n L=60.00n
MM26 nandab CI0N net0143 VPW N12LL W=430.00n L=60.00n
MM29 norab ci0nn net0143 VPW N12LL W=430.00n L=60.00n
MM30 CO0 net0143 VSS VPW N12LL W=860.00n L=60.00n
MM34 nandab CI1N net0155 VPW N12LL W=430.00n L=60.00n
MM35 norab ci1nn net0155 VPW N12LL W=430.00n L=60.00n
MM37 CO1 net0155 VSS VPW N12LL W=860.00n L=60.00n
MM50 ci1nn CI1N VDD VNW P12LL W=270.00n L=60.00n
MM49 ci0nn CI0N VDD VNW P12LL W=270.00n L=60.00n
MM24 nandab A VDD VNW P12LL W=880.00n L=60.00n
MM25 nandab B VDD VNW P12LL W=880.00n L=60.00n
MM31 nandab ci0nn net0143 VNW P12LL W=540.00n L=60.00n
MM32 norab CI0N net0143 VNW P12LL W=540.00n L=60.00n
MM33 CO0 net0143 VDD VNW P12LL W=1.08u L=60.00n
MM4 norab A net0215 VNW P12LL W=880.00n L=60.00n
MM45 nandab ci1nn net0155 VNW P12LL W=540.00n L=60.00n
MM46 norab CI1N net0155 VNW P12LL W=540.00n L=60.00n
MM47 CO1 net0155 VDD VNW P12LL W=1.08u L=60.00n
MM5 net0215 B VDD VNW P12LL W=880.00n L=60.00n
.ENDS AC2CINHSV4
****Sub-Circuit for AC2CONHSV1, Thu Jan 20 09:48:40 CST 2011****
.SUBCKT AC2CONHSV1 A B CI0 CI1 CO0N CO1N VDD VSS
MM50 ci1n CI1 VDD VNW P12LL W=220.00n L=60.00n
MM49 ci0n CI0 VDD VNW P12LL W=220.00n L=60.00n
MM77 andab nandab VDD VNW P12LL W=220.00n L=60.00n
MM76 orab norab VDD VNW P12LL W=220.00n L=60.00n
MM24 nandab A VDD VNW P12LL W=220.00n L=60.00n
MM25 nandab B VDD VNW P12LL W=220.00n L=60.00n
MM45 andab CI1 net176 VNW P12LL W=220.00n L=60.00n
MM46 orab ci1n net176 VNW P12LL W=220.00n L=60.00n
MM47 CO1N net176 VDD VNW P12LL W=440.00n L=60.00n
MM31 andab CI0 net188 VNW P12LL W=220.00n L=60.00n
MM32 orab ci0n net188 VNW P12LL W=220.00n L=60.00n
MM33 CO0N net188 VDD VNW P12LL W=440.00n L=60.00n
MM4 norab A net144 VNW P12LL W=280.00n L=60.00n
MM5 net144 B VDD VNW P12LL W=280.00n L=60.00n
MM51 ci1n CI1 VSS VPW N12LL W=180.00n L=60.00n
MM48 ci0n CI0 VSS VPW N12LL W=180.00n L=60.00n
MM26 andab ci0n net188 VPW N12LL W=180.00n L=60.00n
MM29 orab CI0 net188 VPW N12LL W=180.00n L=60.00n
MM30 CO0N net188 VSS VPW N12LL W=350.00n L=60.00n
MM34 andab ci1n net176 VPW N12LL W=180.00n L=60.00n
MM35 orab CI1 net176 VPW N12LL W=180.00n L=60.00n
MM37 CO1N net176 VSS VPW N12LL W=350.00n L=60.00n
MM75 andab nandab VSS VPW N12LL W=180.00n L=60.00n
MM74 orab norab VSS VPW N12LL W=180.00n L=60.00n
MM3 norab A VSS VPW N12LL W=180.00n L=60.00n
MM2 norab B VSS VPW N12LL W=180.00n L=60.00n
MM18 net209 B VSS VPW N12LL W=260.00n L=60.00n
MM23 nandab A net209 VPW N12LL W=260.00n L=60.00n
.ENDS AC2CONHSV1
****Sub-Circuit for AC2CONHSV2, Thu Jan 20 09:48:40 CST 2011****
.SUBCKT AC2CONHSV2 A B CI0 CI1 CO0N CO1N VDD VSS
MM50 ci1n CI1 VDD VNW P12LL W=270.00n L=60.00n
MM49 ci0n CI0 VDD VNW P12LL W=270.00n L=60.00n
MM77 andab nandab VDD VNW P12LL W=270.00n L=60.00n
MM76 orab norab VDD VNW P12LL W=270.00n L=60.00n
MM24 nandab A VDD VNW P12LL W=440.00n L=60.00n
MM25 nandab B VDD VNW P12LL W=440.00n L=60.00n
MM45 andab CI1 net176 VNW P12LL W=270.00n L=60.00n
MM46 orab ci1n net176 VNW P12LL W=270.00n L=60.00n
MM47 CO1N net176 VDD VNW P12LL W=540.00n L=60.00n
MM31 andab CI0 net188 VNW P12LL W=270.00n L=60.00n
MM32 orab ci0n net188 VNW P12LL W=270.00n L=60.00n
MM33 CO0N net188 VDD VNW P12LL W=540.00n L=60.00n
MM4 norab A net144 VNW P12LL W=440.00n L=60.00n
MM5 net144 B VDD VNW P12LL W=440.00n L=60.00n
MM51 ci1n CI1 VSS VPW N12LL W=220.00n L=60.00n
MM48 ci0n CI0 VSS VPW N12LL W=220.00n L=60.00n
MM26 andab ci0n net188 VPW N12LL W=220.00n L=60.00n
MM29 orab CI0 net188 VPW N12LL W=220.00n L=60.00n
MM30 CO0N net188 VSS VPW N12LL W=430.00n L=60.00n
MM34 andab ci1n net176 VPW N12LL W=220.00n L=60.00n
MM35 orab CI1 net176 VPW N12LL W=220.00n L=60.00n
MM37 CO1N net176 VSS VPW N12LL W=430.00n L=60.00n
MM75 andab nandab VSS VPW N12LL W=220.00n L=60.00n
MM74 orab norab VSS VPW N12LL W=220.00n L=60.00n
MM3 norab A VSS VPW N12LL W=240.00n L=60.00n
MM2 norab B VSS VPW N12LL W=240.00n L=60.00n
MM18 net209 B VSS VPW N12LL W=430.00n L=60.00n
MM23 nandab A net209 VPW N12LL W=430.00n L=60.00n
.ENDS AC2CONHSV2
****Sub-Circuit for AC2CONHSV4, Thu Jan 20 09:48:40 CST 2011****
.SUBCKT AC2CONHSV4 A B CI0 CI1 CO0N CO1N VDD VSS
MM50 ci1n CI1 VDD VNW P12LL W=270.00n L=60.00n
MM49 ci0n CI0 VDD VNW P12LL W=270.00n L=60.00n
MM77 andab nandab VDD VNW P12LL W=540.00n L=60.00n
MM76 orab norab VDD VNW P12LL W=540.00n L=60.00n
MM24 nandab A VDD VNW P12LL W=880.00n L=60.00n
MM25 nandab B VDD VNW P12LL W=880.00n L=60.00n
MM45 andab CI1 net176 VNW P12LL W=540.00n L=60.00n
MM46 orab ci1n net176 VNW P12LL W=540.00n L=60.00n
MM47 CO1N net176 VDD VNW P12LL W=1.08u L=60.00n
MM31 andab CI0 net188 VNW P12LL W=540.00n L=60.00n
MM32 orab ci0n net188 VNW P12LL W=540.00n L=60.00n
MM33 CO0N net188 VDD VNW P12LL W=1.08u L=60.00n
MM4 norab A net144 VNW P12LL W=880.00n L=60.00n
MM5 net144 B VDD VNW P12LL W=880.00n L=60.00n
MM51 ci1n CI1 VSS VPW N12LL W=220.00n L=60.00n
MM48 ci0n CI0 VSS VPW N12LL W=220.00n L=60.00n
MM26 andab ci0n net188 VPW N12LL W=430.00n L=60.00n
MM29 orab CI0 net188 VPW N12LL W=430.00n L=60.00n
MM30 CO0N net188 VSS VPW N12LL W=860.00n L=60.00n
MM34 andab ci1n net176 VPW N12LL W=430.00n L=60.00n
MM35 orab CI1 net176 VPW N12LL W=430.00n L=60.00n
MM37 CO1N net176 VSS VPW N12LL W=860.00n L=60.00n
MM75 andab nandab VSS VPW N12LL W=430.00n L=60.00n
MM74 orab norab VSS VPW N12LL W=430.00n L=60.00n
MM3 norab A VSS VPW N12LL W=480.00n L=60.00n
MM2 norab B VSS VPW N12LL W=480.00n L=60.00n
MM18 net209 B VSS VPW N12LL W=860.00n L=60.00n
MM23 nandab A net209 VPW N12LL W=860.00n L=60.00n
.ENDS AC2CONHSV4
****Sub-Circuit for ACH2CONHSV1, Fri Jan 28 15:34:45 CST 2011****
.SUBCKT ACH2CONHSV1 A B CO0N CO1N VDD VSS
MM5 net50 B VDD VNW P12LL W=520.00n L=60.00n
MM4 CO1N A net50 VNW P12LL W=520.00n L=60.00n
MM13 CO0N B VDD VNW P12LL W=390.00n L=60.00n
MM12 CO0N A VDD VNW P12LL W=390.00n L=60.00n
MM11 CO0N A net83 VPW N12LL W=430.00n L=60.00n
MM10 net83 B VSS VPW N12LL W=430.00n L=60.00n
MM2 CO1N B VSS VPW N12LL W=280.00n L=60.00n
MM3 CO1N A VSS VPW N12LL W=280.00n L=60.00n
.ENDS ACH2CONHSV1
****Sub-Circuit for ACH2CONHSV2, Fri Jan 28 15:34:45 CST 2011****
.SUBCKT ACH2CONHSV2 A B CO0N CO1N VDD VSS
MM5 net50 B VDD VNW P12LL W=650.00n L=60.00n
MM4 CO1N A net50 VNW P12LL W=650.00n L=60.00n
MM13 CO0N B VDD VNW P12LL W=420.00n L=60.00n
MM12 CO0N A VDD VNW P12LL W=420.00n L=60.00n
MM11 CO0N A net83 VPW N12LL W=430.00n L=60.00n
MM10 net83 B VSS VPW N12LL W=430.00n L=60.00n
MM2 CO1N B VSS VPW N12LL W=350.00n L=60.00n
MM3 CO1N A VSS VPW N12LL W=350.00n L=60.00n
.ENDS ACH2CONHSV2
****Sub-Circuit for ACH2CONHSV4, Thu May 19 15:02:12 CST 2011****
.SUBCKT ACH2CONHSV4 A B CO0N CO1N VDD VSS
MM5 net50 B VDD VNW P12LL W=1.03u L=60.00n
MM4 CO1N A net50 VNW P12LL W=1.03u L=60.00n
MM13 CO0N B VDD VNW P12LL W=960.00n L=60.00n
MM12 CO0N A VDD VNW P12LL W=960.00n L=60.00n
MM11 CO0N A net83 VPW N12LL W=860n L=60.00n
MM10 net83 B VSS VPW N12LL W=860n L=60.00n
MM2 CO1N B VSS VPW N12LL W=700.00n L=60.00n
MM3 CO1N A VSS VPW N12LL W=700.00n L=60.00n
.ENDS ACH2CONHSV4
****Sub-Circuit for AD142HSV1, Thu May 19 13:57:40 CST 2011****
.SUBCKT AD142HSV1 A B C CI CO D ICO S VDD VSS
MM66 cin CI VSS VPW N12LL W=180.00n L=60.00n
MM65 cinn cin VSS VPW N12LL W=180.00n L=60.00n
MM61 cin xorabcd net0135 VPW N12LL W=180.00n L=60.00n
MM60 dn xnorabcd net0135 VPW N12LL W=180.00n L=60.00n
MM59 CO net0135 VSS VPW N12LL W=350.00n L=60.00n
MM57 S net0147 VSS VPW N12LL W=350.00n L=60.00n
MM54 cin xnorabcd net0147 VPW N12LL W=180.00n L=60.00n
MM53 cinn xorabcd net0147 VPW N12LL W=180.00n L=60.00n
MM52 xorab xnorab VSS VPW N12LL W=180.00n L=60.00n
MM49 xnorabcd xorabcd VSS VPW N12LL W=180.00n L=60.00n
MM47 xorabcd xnorab net0179 VPW N12LL W=180.00n L=60.00n
MM14 net0196 B VSS VPW N12LL W=210.00n L=60.00n
MM15 nandab A net0196 VPW N12LL W=210.00n L=60.00n
MM69 dn D VSS VPW N12LL W=180.00n L=60.00n
MM32 net0172 cn VSS VPW N12LL W=180.00n L=60.00n
MM26 net0204 A VSS VPW N12LL W=250.00n L=60.00n
MM29 net0204 B VSS VPW N12LL W=250.00n L=60.00n
MM31 xnorab nandab net0204 VPW N12LL W=180.00n L=60.00n
MM34 cn D net0179 VPW N12LL W=180.00n L=60.00n
MM27 cn C VSS VPW N12LL W=220.00n L=60.00n
MM33 net0172 dn net0179 VPW N12LL W=180.00n L=60.00n
MM19 ICO net108 VSS VPW N12LL W=350.00n L=60.00n
MM45 xorabcd net0179 xnorab VPW N12LL W=180.00n L=60.00n
MM36 nandab xnorab net108 VPW N12LL W=180.00n L=60.00n
MM38 cn xorab net108 VPW N12LL W=180.00n L=60.00n
MM68 cin CI VDD VNW P12LL W=220.00n L=60.00n
MM67 cinn cin VDD VNW P12LL W=220.00n L=60.00n
MM64 cin xnorabcd net0135 VNW P12LL W=220.00n L=60.00n
MM63 dn xorabcd net0135 VNW P12LL W=220.00n L=60.00n
MM62 CO net0135 VDD VNW P12LL W=440.00n L=60.00n
MM58 S net0147 VDD VNW P12LL W=440.00n L=60.00n
MM56 cin xorabcd net0147 VNW P12LL W=220.00n L=60.00n
MM55 cinn xnorabcd net0147 VNW P12LL W=220.00n L=60.00n
MM51 xorab xnorab VDD VNW P12LL W=220.00n L=60.00n
MM50 xnorabcd xorabcd VDD VNW P12LL W=220.00n L=60.00n
MM48 xorabcd xorab net0179 VNW P12LL W=220.00n L=60.00n
MM16 nandab A VDD VNW P12LL W=180.00n L=60.00n
MM17 nandab B VDD VNW P12LL W=180.00n L=60.00n
MM70 dn D VDD VNW P12LL W=220.00n L=60.00n
MM30 net0172 cn VDD VNW P12LL W=220.00n L=60.00n
MM18 xnorab A net0307 VNW P12LL W=200.00n L=60.00n
MM23 xnorab nandab VDD VNW P12LL W=200.00n L=60.00n
MM25 net0307 B VDD VNW P12LL W=200.00n L=60.00n
MM35 net0172 D net0179 VNW P12LL W=220.00n L=60.00n
MM37 cn dn net0179 VNW P12LL W=220.00n L=60.00n
MM28 cn C VDD VNW P12LL W=270.00n L=60.00n
MM20 ICO net108 VDD VNW P12LL W=440.00n L=60.00n
MM46 xorabcd net0179 xorab VNW P12LL W=220.00n L=60.00n
MM39 nandab xorab net108 VNW P12LL W=220.00n L=60.00n
MM40 cn xnorab net108 VNW P12LL W=220.00n L=60.00n
.ENDS AD142HSV1
****Sub-Circuit for AD142HSV2, Thu Jan 20 09:48:40 CST 2011****
.SUBCKT AD142HSV2 A B C CI CO D ICO S VDD VSS
MM66 cin CI VSS VPW N12LL W=280.00n L=60.00n
MM65 cinn cin VSS VPW N12LL W=220.00n L=60.00n
MM61 cin xorabcd net0135 VPW N12LL W=220.00n L=60.00n
MM60 dn xnorabcd net0135 VPW N12LL W=220.00n L=60.00n
MM59 CO net0135 VSS VPW N12LL W=430.00n L=60.00n
MM57 S net0147 VSS VPW N12LL W=430.00n L=60.00n
MM54 cin xnorabcd net0147 VPW N12LL W=220.00n L=60.00n
MM53 cinn xorabcd net0147 VPW N12LL W=220.00n L=60.00n
MM52 xorab xnorab VSS VPW N12LL W=220.00n L=60.00n
MM49 xnorabcd xorabcd VSS VPW N12LL W=220.00n L=60.00n
MM47 xorabcd xnorab net0179 VPW N12LL W=220.00n L=60.00n
MM14 net0196 B VSS VPW N12LL W=430.00n L=60.00n
MM15 nandab A net0196 VPW N12LL W=430.00n L=60.00n
MM69 dn D VSS VPW N12LL W=280.00n L=60.00n
MM32 net0172 cn VSS VPW N12LL W=220.00n L=60.00n
MM26 net0204 A VSS VPW N12LL W=320.00n L=60.00n
MM29 net0204 B VSS VPW N12LL W=320.00n L=60.00n
MM31 xnorab nandab net0204 VPW N12LL W=180.00n L=60.00n
MM34 cn D net0179 VPW N12LL W=220.00n L=60.00n
MM27 cn C VSS VPW N12LL W=280.00n L=60.00n
MM33 net0172 dn net0179 VPW N12LL W=220.00n L=60.00n
MM19 ICO net108 VSS VPW N12LL W=430.00n L=60.00n
MM45 xorabcd net0179 xnorab VPW N12LL W=220.00n L=60.00n
MM36 nandab xnorab net108 VPW N12LL W=220.00n L=60.00n
MM38 cn xorab net108 VPW N12LL W=220.00n L=60.00n
MM68 cin CI VDD VNW P12LL W=350.00n L=60.00n
MM67 cinn cin VDD VNW P12LL W=270.00n L=60.00n
MM64 cin xnorabcd net0135 VNW P12LL W=270.00n L=60.00n
MM63 dn xorabcd net0135 VNW P12LL W=270.00n L=60.00n
MM62 CO net0135 VDD VNW P12LL W=540.00n L=60.00n
MM58 S net0147 VDD VNW P12LL W=540.00n L=60.00n
MM56 cin xorabcd net0147 VNW P12LL W=270.00n L=60.00n
MM55 cinn xnorabcd net0147 VNW P12LL W=270.00n L=60.00n
MM51 xorab xnorab VDD VNW P12LL W=270.00n L=60.00n
MM50 xnorabcd xorabcd VDD VNW P12LL W=270.00n L=60.00n
MM48 xorabcd xorab net0179 VNW P12LL W=270.00n L=60.00n
MM16 nandab A VDD VNW P12LL W=420.00n L=60.00n
MM17 nandab B VDD VNW P12LL W=420.00n L=60.00n
MM70 dn D VDD VNW P12LL W=350.00n L=60.00n
MM30 net0172 cn VDD VNW P12LL W=270.00n L=60.00n
MM18 xnorab A net0307 VNW P12LL W=220.00n L=60.00n
MM23 xnorab nandab VDD VNW P12LL W=220.00n L=60.00n
MM25 net0307 B VDD VNW P12LL W=220.00n L=60.00n
MM35 net0172 D net0179 VNW P12LL W=270.00n L=60.00n
MM37 cn dn net0179 VNW P12LL W=270.00n L=60.00n
MM28 cn C VDD VNW P12LL W=350.00n L=60.00n
MM20 ICO net108 VDD VNW P12LL W=540.00n L=60.00n
MM46 xorabcd net0179 xorab VNW P12LL W=270.00n L=60.00n
MM39 nandab xorab net108 VNW P12LL W=270.00n L=60.00n
MM40 cn xnorab net108 VNW P12LL W=270.00n L=60.00n
.ENDS AD142HSV2
****Sub-Circuit for AD142HSV4, Thu Jan 20 09:48:40 CST 2011****
.SUBCKT AD142HSV4 A B C CI CO D ICO S VDD VSS
MM66 cin CI VSS VPW N12LL W=430.00n L=60.00n
MM65 cinn cin VSS VPW N12LL W=350.00n L=60.00n
MM61 cin xorabcd net0135 VPW N12LL W=430.00n L=60.00n
MM60 dn xnorabcd net0135 VPW N12LL W=430.00n L=60.00n
MM59 CO net0135 VSS VPW N12LL W=860.00n L=60.00n
MM57 S net0147 VSS VPW N12LL W=860.00n L=60.00n
MM54 cin xnorabcd net0147 VPW N12LL W=430.00n L=60.00n
MM53 cinn xorabcd net0147 VPW N12LL W=430.00n L=60.00n
MM52 xorab xnorab VSS VPW N12LL W=430.00n L=60.00n
MM49 xnorabcd xorabcd VSS VPW N12LL W=430.00n L=60.00n
MM47 xorabcd xnorab net0179 VPW N12LL W=430.00n L=60.00n
MM14 net0196 B VSS VPW N12LL W=430.00n L=60.00n
MM15 nandab A net0196 VPW N12LL W=430.00n L=60.00n
MM69 dn D VSS VPW N12LL W=430.00n L=60.00n
MM32 net0172 cn VSS VPW N12LL W=430.00n L=60.00n
MM26 net0204 A VSS VPW N12LL W=320.00n L=60.00n
MM29 net0204 B VSS VPW N12LL W=320.00n L=60.00n
MM31 xnorab nandab net0204 VPW N12LL W=180.00n L=60.00n
MM34 cn D net0179 VPW N12LL W=430.00n L=60.00n
MM27 cn C VSS VPW N12LL W=430.00n L=60.00n
MM33 net0172 dn net0179 VPW N12LL W=430.00n L=60.00n
MM19 ICO net108 VSS VPW N12LL W=860.00n L=60.00n
MM45 xorabcd net0179 xnorab VPW N12LL W=430.00n L=60.00n
MM36 nandab xnorab net108 VPW N12LL W=430.00n L=60.00n
MM38 cn xorab net108 VPW N12LL W=430.00n L=60.00n
MM68 cin CI VDD VNW P12LL W=540.00n L=60.00n
MM67 cinn cin VDD VNW P12LL W=440.00n L=60.00n
MM64 cin xnorabcd net0135 VNW P12LL W=540.00n L=60.00n
MM63 dn xorabcd net0135 VNW P12LL W=540.00n L=60.00n
MM62 CO net0135 VDD VNW P12LL W=1.08u L=60.00n
MM58 S net0147 VDD VNW P12LL W=1.08u L=60.00n
MM56 cin xorabcd net0147 VNW P12LL W=540.00n L=60.00n
MM55 cinn xnorabcd net0147 VNW P12LL W=540.00n L=60.00n
MM51 xorab xnorab VDD VNW P12LL W=540.00n L=60.00n
MM50 xnorabcd xorabcd VDD VNW P12LL W=540.00n L=60.00n
MM48 xorabcd xorab net0179 VNW P12LL W=540.00n L=60.00n
MM16 nandab A VDD VNW P12LL W=420.00n L=60.00n
MM17 nandab B VDD VNW P12LL W=420.00n L=60.00n
MM70 dn D VDD VNW P12LL W=540.00n L=60.00n
MM30 net0172 cn VDD VNW P12LL W=540.00n L=60.00n
MM18 xnorab A net0307 VNW P12LL W=220.00n L=60.00n
MM23 xnorab nandab VDD VNW P12LL W=220.00n L=60.00n
MM25 net0307 B VDD VNW P12LL W=220.00n L=60.00n
MM35 net0172 D net0179 VNW P12LL W=540.00n L=60.00n
MM37 cn dn net0179 VNW P12LL W=540.00n L=60.00n
MM28 cn C VDD VNW P12LL W=540.00n L=60.00n
MM20 ICO net108 VDD VNW P12LL W=1.08u L=60.00n
MM46 xorabcd net0179 xorab VNW P12LL W=540.00n L=60.00n
MM39 nandab xorab net108 VNW P12LL W=540.00n L=60.00n
MM40 cn xnorab net108 VNW P12LL W=540.00n L=60.00n
.ENDS AD142HSV4
****Sub-Circuit for AD1CINHSV1, Thu Jan 20 09:48:40 CST 2011****
.SUBCKT AD1CINHSV1 A B CIN CO S VDD VSS
MM41 net0196 CIN net78 VPW N12LL W=180.00n L=60.00n
MM42 norab cinn net78 VPW N12LL W=180.00n L=60.00n
MMN1 xo norab VSS VPW N12LL W=390.00n L=60.00n
MM3 norab A VSS VPW N12LL W=300.00n L=60.00n
MM0 xo A net0164 VPW N12LL W=440.00n L=60.00n
MM2 norab B VSS VPW N12LL W=300.00n L=60.00n
MM7 net0164 B VSS VPW N12LL W=440.00n L=60.00n
MM8 xn xo VSS VPW N12LL W=180.00n L=60.00n
MM10 net0124 B VSS VPW N12LL W=210.00n L=60.00n
MM11 net0196 A net0124 VPW N12LL W=210.00n L=60.00n
MM27 cinn CIN VSS VPW N12LL W=180.00n L=60.00n
MM22 CO net78 VSS VPW N12LL W=350.00n L=60.00n
MM19 S net108 VSS VPW N12LL W=350.00n L=60.00n
MM36 xn CIN net108 VPW N12LL W=180.00n L=60.00n
MM38 xo cinn net108 VPW N12LL W=180.00n L=60.00n
MM43 net0196 cinn net78 VNW P12LL W=220.00n L=60.00n
MM44 norab CIN net78 VNW P12LL W=220.00n L=60.00n
MM12 net0196 A VDD VNW P12LL W=180.00n L=60.00n
MM13 net0196 B VDD VNW P12LL W=180.00n L=60.00n
MM28 cinn CIN VDD VNW P12LL W=220.00n L=60.00n
MM21 CO net78 VDD VNW P12LL W=440.00n L=60.00n
MM20 S net108 VDD VNW P12LL W=440.00n L=60.00n
MM4 norab A net0215 VNW P12LL W=550.00n L=60.00n
MMP1 net0223 A VDD VNW P12LL W=550.00n L=60.00n
MM1 xo norab net0223 VNW P12LL W=440.00n L=60.00n
MM6 net0223 B VDD VNW P12LL W=550.00n L=60.00n
MM5 net0215 B VDD VNW P12LL W=550.00n L=60.00n
MM9 xn xo VDD VNW P12LL W=220.00n L=60.00n
MM39 xn cinn net108 VNW P12LL W=220.00n L=60.00n
MM40 xo CIN net108 VNW P12LL W=220.00n L=60.00n
.ENDS AD1CINHSV1
****Sub-Circuit for AD1CINHSV2, Thu Jan 20 09:48:40 CST 2011****
.SUBCKT AD1CINHSV2 A B CIN CO S VDD VSS
MM41 net0196 CIN net78 VPW N12LL W=220.00n L=60.00n
MM42 norab cinn net78 VPW N12LL W=220.00n L=60.00n
MMN1 xo norab VSS VPW N12LL W=430.00n L=60.00n
MM3 norab A VSS VPW N12LL W=350.00n L=60.00n
MM0 xo A net0164 VPW N12LL W=430.00n L=60.00n
MM2 norab B VSS VPW N12LL W=350.00n L=60.00n
MM7 net0164 B VSS VPW N12LL W=430.00n L=60.00n
MM8 xn xo VSS VPW N12LL W=220.00n L=60.00n
MM10 net0124 B VSS VPW N12LL W=260.00n L=60.00n
MM11 net0196 A net0124 VPW N12LL W=260.00n L=60.00n
MM27 cinn CIN VSS VPW N12LL W=220.00n L=60.00n
MM22 CO net78 VSS VPW N12LL W=430.00n L=60.00n
MM19 S net108 VSS VPW N12LL W=430.00n L=60.00n
MM36 xn CIN net108 VPW N12LL W=220.00n L=60.00n
MM38 xo cinn net108 VPW N12LL W=220.00n L=60.00n
MM43 net0196 cinn net78 VNW P12LL W=270.00n L=60.00n
MM44 norab CIN net78 VNW P12LL W=270.00n L=60.00n
MM12 net0196 A VDD VNW P12LL W=220.00n L=60.00n
MM13 net0196 B VDD VNW P12LL W=220.00n L=60.00n
MM28 cinn CIN VDD VNW P12LL W=270.00n L=60.00n
MM21 CO net78 VDD VNW P12LL W=540.00n L=60.00n
MM20 S net108 VDD VNW P12LL W=540.00n L=60.00n
MM4 norab A net0215 VNW P12LL W=650.00n L=60.00n
MMP1 net0223 A VDD VNW P12LL W=650.00n L=60.00n
MM1 xo norab net0223 VNW P12LL W=540.00n L=60.00n
MM6 net0223 B VDD VNW P12LL W=650.00n L=60.00n
MM5 net0215 B VDD VNW P12LL W=650.00n L=60.00n
MM9 xn xo VDD VNW P12LL W=270.00n L=60.00n
MM39 xn cinn net108 VNW P12LL W=270.00n L=60.00n
MM40 xo CIN net108 VNW P12LL W=270.00n L=60.00n
.ENDS AD1CINHSV2
****Sub-Circuit for AD1CINHSV4, Thu Jan 20 09:48:40 CST 2011****
.SUBCKT AD1CINHSV4 A B CIN CO S VDD VSS
MM41 net0196 CIN net78 VPW N12LL W=430.00n L=60.00n
MM42 norab cinn net78 VPW N12LL W=430.00n L=60.00n
MMN1 xo norab VSS VPW N12LL W=880.00n L=60.00n
MM3 norab A VSS VPW N12LL W=700.00n L=60.00n
MM0 xo A net0164 VPW N12LL W=1.08u L=60.00n
MM2 norab B VSS VPW N12LL W=700.00n L=60.00n
MM7 net0164 B VSS VPW N12LL W=1.08u L=60.00n
MM8 xn xo VSS VPW N12LL W=430.00n L=60.00n
MM10 net0124 B VSS VPW N12LL W=520.00n L=60.00n
MM11 net0196 A net0124 VPW N12LL W=520.00n L=60.00n
MM27 cinn CIN VSS VPW N12LL W=220.00n L=60.00n
MM22 CO net78 VSS VPW N12LL W=860.00n L=60.00n
MM19 S net108 VSS VPW N12LL W=860.00n L=60.00n
MM36 xn CIN net108 VPW N12LL W=430.00n L=60.00n
MM38 xo cinn net108 VPW N12LL W=430.00n L=60.00n
MM43 net0196 cinn net78 VNW P12LL W=540.00n L=60.00n
MM44 norab CIN net78 VNW P12LL W=540.00n L=60.00n
MM12 net0196 A VDD VNW P12LL W=440.00n L=60.00n
MM13 net0196 B VDD VNW P12LL W=440.00n L=60.00n
MM28 cinn CIN VDD VNW P12LL W=270.00n L=60.00n
MM21 CO net78 VDD VNW P12LL W=1.08u L=60.00n
MM20 S net108 VDD VNW P12LL W=1.08u L=60.00n
MM4 norab A net0215 VNW P12LL W=1.3u L=60.00n
MMP1 net0223 A VDD VNW P12LL W=1.3u L=60.00n
MM1 xo norab net0223 VNW P12LL W=1.08u L=60.00n
MM6 net0223 B VDD VNW P12LL W=1.3u L=60.00n
MM5 net0215 B VDD VNW P12LL W=1.3u L=60.00n
MM9 xn xo VDD VNW P12LL W=540.00n L=60.00n
MM39 xn cinn net108 VNW P12LL W=540.00n L=60.00n
MM40 xo CIN net108 VNW P12LL W=540.00n L=60.00n
.ENDS AD1CINHSV4
****Sub-Circuit for AD1CONHSV1, Thu Jan 20 09:48:40 CST 2011****
.SUBCKT AD1CONHSV1 A B CI CON S VDD VSS
MM16 net0133 norab VSS VPW N12LL W=180.00n L=60.00n
MM41 net0196 cin net78 VPW N12LL W=180.00n L=60.00n
MM42 net0133 CI net78 VPW N12LL W=180.00n L=60.00n
MMN1 xo norab VSS VPW N12LL W=390.00n L=60.00n
MM3 norab A VSS VPW N12LL W=300.00n L=60.00n
MM0 xo A net0164 VPW N12LL W=440.00n L=60.00n
MM2 norab B VSS VPW N12LL W=300.00n L=60.00n
MM7 net0164 B VSS VPW N12LL W=440.00n L=60.00n
MM14 net0196 net0193 VSS VPW N12LL W=180.00n L=60.00n
MM8 xn xo VSS VPW N12LL W=180.00n L=60.00n
MM10 net0124 B VSS VPW N12LL W=210.00n L=60.00n
MM11 net0193 A net0124 VPW N12LL W=210.00n L=60.00n
MM27 cin CI VSS VPW N12LL W=180.00n L=60.00n
MM22 CON net78 VSS VPW N12LL W=350.00n L=60.00n
MM19 S net108 VSS VPW N12LL W=350.00n L=60.00n
MM36 xn cin net108 VPW N12LL W=180.00n L=60.00n
MM38 xo CI net108 VPW N12LL W=180.00n L=60.00n
MM17 net0133 norab VDD VNW P12LL W=220.00n L=60.00n
MM43 net0196 CI net78 VNW P12LL W=220.00n L=60.00n
MM44 net0133 cin net78 VNW P12LL W=220.00n L=60.00n
MM15 net0196 net0193 VDD VNW P12LL W=220.00n L=60.00n
MM12 net0193 A VDD VNW P12LL W=180.00n L=60.00n
MM13 net0193 B VDD VNW P12LL W=180.00n L=60.00n
MM28 cin CI VDD VNW P12LL W=220.00n L=60.00n
MM21 CON net78 VDD VNW P12LL W=440.00n L=60.00n
MM20 S net108 VDD VNW P12LL W=440.00n L=60.00n