//*Spectre Model Format
simulator lang=spectre  insensitive=yes
// *
// *  no part of this file can be released without the consent of smic.
// *
// *************************************************************************************************************
// *  40nm Logic Low Leakage 1P10M(1P9M,1P8M,1P7M,1P6M) Salicide 1.1V/1.8V/2.5V SPICE Model (for spectre only) *
// *************************************************************************************************************
// * 
// * Release version     : 1.4
// * 
// *  Release date       : 09/25/2012
// *
// * simulation tool     : Cadence spectre V6.2.1
// *
// * model type          :
// *   vertical  bjt     : spectre BJT
// *
// *  model name         :
// *
// *        *---------------------------------------------*
// *        |  n+/pwell/deepnwell bjt type  |    1.1V     |
// *        |=============================================|
// *        | emitter area: 2*2 um^2        | npn11a4ll   |
// *        *---------------------------------------------*
// *
// *  the valid temperature range is from -40c to 125c
// *
// ****************************************************************************
// *    1.1v vertical n+/pwell/dnw bipolar model (emitter area=2x2um^2)    *
// ****************************************************************************
// *
model  npn11a4ll_sba  bjt type = npn 
// **************************************************************
// *               GENERAL PARAMETERS 
// **************************************************************
+tnom    = 25            
// **************************************************************
// *               CAPACITANCE PARAMETERS 
// **************************************************************
+cjc     = (5.3681e-015+dcjc_npn11a4ll_sba)  cje     = (5.8929e-015+dcje_npn11a4ll_sba)  cjs     = 0               fc      = 0.75          
+mjc     = 0.813276        mje     = 0.258409        mjs     = 0.5             vjc     = 1.300769      
+vje     = 0.458831        vjs     = 0.75            xcjc    = 0.5             cbcp    = 0             
+cbep    = 0               ccsp    = 0               itf     = 0.1             ptf     = 0             
+tf      = 1e-010          tr      = 0               vtf     = 10              xtf     = 1             
// **************************************************************
// *               Noise PARAMETERS 
// **************************************************************
+af      = 1               kf      = 0             
// **************************************************************
// *               DC PARAMETERS 
// **************************************************************
+is      = (2.4916e-018+dis_npn11a4ll_sba)  rb      = 54.72           re      = 27.556          irb     = 0.40595       
+rc      = 1.7317          rbm     = 2.3423          bf      = (4.882+dbf_npn11a4ll_sba)  nf      = (1.0604+dnf_npn11a4ll_sba)
+vaf     = 71.806          ikf     = 0.0028816       ise     = 7.1156e-016     ne      = 1.6038        
+br      = 0.04032         nr      = 1.0648          var     = 33.25           ikr     = 0.020925      
+nkf     = 0.43788         isc     = 9.9306e-017     nc      = 1.2773        
// **************************************************************
// *               TEMPERATURE PARAMETERS 
// **************************************************************
+xtb     = 0               xti     = 3               eg      = 1.16            bex     = 0             
+bexv    = 0               ctc     = 0.0010193       cte     = 0.00055752      cts     = 0             
+tlev    = 0               tlevc   = 1               tvjc    = 0.0013873       tvje    = 0.00079726    
+tvjs    = 0               tnf1    = 0.0002935       tnr1    = 0.00027627      tne1    = 0.00045526    
+tnc1    = 0               tbf1    = 0.0025432       tbr1    = -0.00026568     tvaf1   = 0             
+tvar1   = 0               tikf1   = -0.00075596     tikr1   = 0               tns1    = 0             
+trb1    = 0               trc1    = 0               tre1    = 0               tirb1   = 0             
+trm1    = 0               tmjc1   = 0               tmje1   = 0               tmjs1   = 0             
+ttf1    = 0               titf1   = 0               ttr1    = 0               tnf2    = -7.3503e-007  
+tnr2    = -1.2906e-006    tne2    = -1.0521e-005    tbf2    = 2.7802e-005     tbr2    = -1.0578e-006  
+tikf2   = -4.1177e-005    tikr2   = 0               trb2    = 0               trc2    = 0             
// *
