//*Spectre Model Format
simulator lang=spectre  insensitive=yes

// *
// *  no part of this file can be released without the consent of smic.
// *
// *************************************************************************************************************
// *  40nm Logic Low Leakage 1P10M(1P9M,1P8M,1P7M,1P6M) Salicide 1.1V/1.8V/2.5V SPICE Model (for spectre only) *
// *************************************************************************************************************
// * 
// * Release version     : 1.4
// * 
// *  Release date       : 09/25/2012
// *
//  simulation tool      : Cadence spectre V6.2.1
// *
// * model type          :
// *   vertical  bjt     : spectre BJT
// *
// * model name         :
// * 
// *        *---------------------------------------------*
// *        |  p+/nwell/psub bjt type       |    1.1V     |
// *        |=============================================|
// *        | emitter area: 2*2 um^2        | pnp11a4ll   |
// *        *---------------------------------------------*
// *
// *  the valid temperature range is from -40c to 125c
// *
// **************************************************************************
// *    1.1V vertival p+/nwell/psub bipolar model (emitter area=2x2um^2)    *
// **************************************************************************
// *
model  pnp11a4ll  bjt type = pnp 
// **************************************************************
// *               GENERAL PARAMETERS 
// **************************************************************
+tnom    = 25            
// **************************************************************
// *               CAPACITANCE PARAMETERS 
// **************************************************************
+cjc     = (2.5155e-014+dcjc_pnp11a4ll)  cje     = (5.6404e-015+dcje_pnp11a4ll)  cjs     = 0               fc      = 0.75          
+mjc     = 0.182957        mje     = 0.358642        mjs     = 0.5             vjc     = 0.58343       
+vje     = 0.789952        vjs     = 0.75            xcjc    = 0.5             cbcp    = 0             
+cbep    = 0               ccsp    = 0               itf     = 0.1             ptf     = 0             
+tf      = 1e-010          tr      = 0               vtf     = 10              xtf     = 1             
// **************************************************************
// *               Noise PARAMETERS 
// **************************************************************
+af      = 1               kf      = 0             
// **************************************************************
// *               DC PARAMETERS 
// **************************************************************
+is      = (3.3022e-019+dis_pnp11a4ll)  rb      = 167.34          re      = 9.4282          irb     = 0.0055        
+rc      = 10              rbm     = 2               bf      = (0.68855+dbf_pnp11a4ll)  nf      = (1.003+dnf_pnp11a4ll)
+vaf     = 153             ikf     = 0.0086828       ise     = 7.0949e-018     ne      = 1.5555        
+br      = 0.0040818       nr      = 0.99485         var     = 44.6            ikr     = 0.005         
+nkf     = 0.5566          isc     = 1.4937e-015     nc      = 1.095         
// **************************************************************
// *               TEMPERATURE PARAMETERS 
// **************************************************************
+xtb     = 0               xti     = 3               eg      = 1.16            bex     = 0             
+bexv    = 0               ctc     = 0.0014393       cte     = 0.00070724      cts     = 0             
+tlev    = 0               tlevc   = 1               tvjc    = 0.00016652      tvje    = 0.0013066     
+tvjs    = 0               tnf1    = 1.2244e-005     tnr1    = 1.1662e-005     tne1    = 0.0026589     
+tnc1    = 6.2775e-005     tbf1    = 0.0038871       tbr1    = 4.4503e-005     tvaf1   = 0             
+tvar1   = 0               tikf1   = -0.0090095      tikr1   = 0               tns1    = 0             
+trb1    = 0               trc1    = 0               tre1    = 4.2265e-005     tirb1   = 0             
+trm1    = 0               tmjc1   = 0               tmje1   = 0               tmjs1   = 0             
+ttf1    = 0               titf1   = 0               ttr1    = 0               tnf2    = -4.0396e-007  
+tnr2    = -5.0736e-008    tne2    = 0               tbf2    = 4.8904e-006     tbr2    = 0             
+tikf2   = 2.1227e-005     tikr2   = -1e-020         trb2    = 0               trc2    = 0             
+tre2    = 0             
// *
