//*Spectre Model Format
simulator lang=spectre  insensitive=yes

// *
// *  no part of this file can be released without the consent of smic.
// *
// *************************************************************************************************************
// *  40nm Logic Low Leakage 1P10M(1P9M,1P8M,1P7M,1P6M) Salicide 1.1V/1.8V/2.5V SPICE Model (for spectre only) *
// *************************************************************************************************************
// * 
// * Release version     : 1.4
// * 
// *  Release date       : 09/25/2012
// *
//  simulation tool      : Cadence spectre V6.2.1
// *
// * model type          :
// *   vertical  bjt     : spectre BJT
// *
// *  model name         :
// *        *----------------------------------------------*
// *        |  p+/nwell/psub bjt type       |      2.5v    |
// *        |==============================================|
// *        | emitter area: 5*5 um^2        |  pnp25a25ll  |
// *        *----------------------------------------------*
// *
// *  the valid temperature range is from -40c to 125c
// *
// ****************************************************************************
// *    2.5v vertical p+/nwell/psub bipolar model (emitter area=5x5um^2)    *
// ****************************************************************************
// *
model  pnp25a25ll  bjt type = pnp 
// **************************************************************
// *               GENERAL PARAMETERS 
// **************************************************************
+tnom    = 25            
// **************************************************************
// *               CAPACITANCE PARAMETERS 
// **************************************************************
+cjc     = (4.7559e-014+dcjc_pnp25a25ll)  cje     = (3.0819e-014+dcje_pnp25a25ll)  cjs     = 0               fc      = 0.75          
+mjc     = 0.182957        mje     = 0.316785        mjs     = 0.5             vjc     = 0.58343       
+vje     = 0.728959        vjs     = 0.75            xcjc    = 0.5             cbcp    = 0             
+cbep    = 0               ccsp    = 0               itf     = 0.1             ptf     = 0             
+tf      = 1e-010          tr      = 0               vtf     = 10              xtf     = 1             
// **************************************************************
// *               Noise PARAMETERS 
// **************************************************************
+af      = 1               kf      = 0             
// **************************************************************
// *               DC PARAMETERS 
// **************************************************************
+is      = (1.9353e-018+dis_pnp25a25ll)  rb      = 195.07          re      = 1.0715          irb     = 0.0055        
+rc      = 1.808           rbm     = 2               bf      = (0.8978+dbf_pnp25a25ll)  nf      = (1.0045+dnf_pnp25a25ll)
+vaf     = 313.65          ikf     = 0.0042767       ise     = 3.1477e-015     ne      = 2.0212        
+br      = 0.0073497       nr      = 1.0035          var     = 44.6            ikr     = 0.005         
+nkf     = 0.5             isc     = 1.8329e-014     nc      = 1.2538        
// **************************************************************
// *               TEMPERATURE PARAMETERS 
// **************************************************************
+xtb     = 0               xti     = 3               eg      = 1.16            bex     = 0             
+bexv    = 0               ctc     = 0.0014393       cte     = 0.0008479       cts     = 0             
+tlev    = 0               tlevc   = 1               tvjc    = 0.00016652      tvje    = 0.0016593     
+tvjs    = 0               tnf1    = 7.6275e-007     tnr1    = 0.00033419      tne1    = -0.00034902   
+tnc1    = 0               tbf1    = 0.00386         tbr1    = 0               tvaf1   = 0             
+tvar1   = 0               tikf1   = -0.0065267      tikr1   = 0               tns1    = 0             
+trb1    = 0               trc1    = 0               tre1    = 0               tirb1   = 0             
+trm1    = 0               tmjc1   = 0               tmje1   = 0               tmjs1   = 0             
+ttf1    = 0               titf1   = 0               ttr1    = 0               tnf2    = -3.2103e-007  
+tnr2    = 2.8712e-007     tne2    = 0               tbf2    = 6.1315e-008     tbr2    = 0             
+tikf2   = 2.665e-005      tikr2   = 0               trb2    = 0               trc2    = 0             
// *
