//*Spectre Model Format
simulator lang=spectre  insensitive=yes

// *
// *  no part of this file can be released without the consent of smic.
// *
// *************************************************************************************************************
// *  40nm Logic Low Leakage 1P10M(1P9M,1P8M,1P7M,1P6M) Salicide 1.1V/1.8V/2.5V SPICE Model (for spectre only) *
// *************************************************************************************************************
// * 
// * Release version     : 1.4
// * 
// *  Release date       : 09/25/2012
// *
//  simulation tool      : Cadence spectre V6.2.1
// *
// * model type          :
// *   vertical  bjt     : spectre BJT
// *
// *  model name         :
// *
// *        *---------------------------------------------*
// *        |  p+/nwell/psub bjt type       |     2.5v    |
// *        |=============================================|
// *        | emitter area: 2*2 um^2        |  pnp25a4ll  |
// *        *---------------------------------------------*
// *
// *  the valid temperature range is from -40c to 125c
// *
// ****************************************************************************
// *    2.5v vertical p+/nwell/psub bipolar model (emitter area=2x2um^2)    *
// ****************************************************************************
// *
model  pnp25a4ll  bjt type = pnp 
// **************************************************************
// *               GENERAL PARAMETERS 
// **************************************************************
+tnom    = 25            
// **************************************************************
// *               CAPACITANCE PARAMETERS 
// **************************************************************
+cjc     = (2.5155e-014+dcjc_pnp25a4ll)  cje     = (4.9311e-015+dcje_pnp25a4ll)  cjs     = 0               fc      = 0.75          
+mjc     = 0.182957        mje     = 0.316785        mjs     = 0.5             vjc     = 0.58343       
+vje     = 0.728959        vjs     = 0.75            xcjc    = 0.5             cbcp    = 0             
+cbep    = 0               ccsp    = 0               itf     = 0.1             ptf     = 0             
+tf      = 1e-010          tr      = 0               vtf     = 10              xtf     = 1             
// **************************************************************
// *               Noise PARAMETERS 
// **************************************************************
+af      = 1               kf      = 0             
// **************************************************************
// *               DC PARAMETERS 
// **************************************************************
+is      = (4.0413e-019+dis_pnp25a4ll)  rb      = 185.8           re      = 1.0462          irb     = 0.0055        
+rc      = 1.9237          rbm     = 2               bf      = (1.0972+dbf_pnp25a4ll)  nf      = (1.0089+dnf_pnp25a4ll)
+vaf     = 233.29          ikf     = 0.0027176       ise     = 2.5475e-016     ne      = 2.2076        
+br      = 0.069314        nr      = 1.02            var     = 44.6            ikr     = 0.005         
+nkf     = 0.5             isc     = 2.6108e-015     nc      = 1.128         
// **************************************************************
// *               TEMPERATURE PARAMETERS 
// **************************************************************
+xtb     = 0               xti     = 3               eg      = 1.16            bex     = 0             
+bexv    = 0               ctc     = 0.0014393       cte     = 0.0008479       cts     = 0             
+tlev    = 0               tlevc   = 1               tvjc    = 0.00016652      tvje    = 0.0016593     
+tvjs    = 0               tnf1    = 4.0632e-005     tnr1    = 0.00029141      tne1    = 0.0032031     
+tnc1    = 4.9271e-006     tbf1    = 0.004078        tbr1    = -4.7677e-005    tvaf1   = 0             
+tvar1   = 0               tikf1   = -0.0063986      tikr1   = 0               tns1    = 0             
+trb1    = 0               trc1    = 0               tre1    = 0               tirb1   = 0             
+trm1    = 0               tmjc1   = 0               tmje1   = 0               tmjs1   = 0             
+ttf1    = 0               titf1   = 0               ttr1    = 0               tnf2    = -1.6778e-007  
+tnr2    = 1.0818e-006     tne2    = 0               tbf2    = 7.8029e-007     tbr2    = 4.8361e-006   
+tikf2   = 1.8122e-005     tikr2   = -1e-020         trb2    = 0               trc2    = 0             
// *
