*
.GLOBAL VDD VSS
*SCALE METER
.OPTION SCALE 1e-9
****Sub-Circuit for AD1HSV1, Wed Sep  5 13:54:26 CST 2012****
.SUBCKT AD1HSV1 A B CI CO S VDD VSS
XX14 m CI net098 VPW n11ll_ckt w=210.00n l=40.00n
XX18 S net098 VSS VPW n11ll_ckt w=190.00n l=40.00n
XX20 bn B VSS VPW n11ll_ckt w=210.00n l=40.00n
XX27 net0175 CI net0171 VPW n11ll_ckt w=310.00n l=40.00n
XX28 net0171 m VSS VPW n11ll_ckt w=310.00n l=40.00n
XX12 m net43 VSS VPW n11ll_ckt w=285.00n l=40.00n
XX22 cn CI VSS VPW n11ll_ckt w=210.00n l=40.00n
XX29 net0167 B VSS VPW n11ll_ckt w=310.00n l=40.00n
XX30 net0175 A net0167 VPW n11ll_ckt w=310.00n l=40.00n
XX32 CO net0175 VSS VPW n11ll_ckt w=210.00n l=40.00n
XX3 net0217 bn net43 VPW n11ll_ckt w=210.00n l=40.00n
XX9 net0147 B net43 VPW n11ll_ckt w=210.00n l=40.00n
XX7 net0217 A VSS VPW n11ll_ckt w=210.00n l=40.00n
XX16 net43 cn net098 VPW n11ll_ckt w=210.00n l=40.00n
XX6 net0147 net0217 VSS VPW n11ll_ckt w=280.00n l=40.00n
XX13 m cn net098 VNW p11ll_ckt w=310.00n l=40.00n
XX17 S net098 VDD VNW p11ll_ckt w=315.00n l=40.00n
XX11 m net43 VDD VNW p11ll_ckt w=430.00n l=40.00n
XX25 net0175 A net0106 VNW p11ll_ckt w=455.00n l=40.00n
XX21 cn CI VDD VNW p11ll_ckt w=250.00n l=40.00n
XX19 bn B VDD VNW p11ll_ckt w=250.00n l=40.00n
XX8 net0147 bn net43 VNW p11ll_ckt w=310.00n l=40.00n
XX26 net0175 B net0106 VNW p11ll_ckt w=455.00n l=40.00n
XX24 net0106 m VDD VNW p11ll_ckt w=455.00n l=40.00n
XX23 net0106 CI VDD VNW p11ll_ckt w=455.00n l=40.00n
XX2 net0217 B net43 VNW p11ll_ckt w=310.00n l=40.00n
XX31 CO net0175 VDD VNW p11ll_ckt w=315.00n l=40.00n
XX4 net0147 net0217 VDD VNW p11ll_ckt w=430.00n l=40.00n
XX5 net0217 A VDD VNW p11ll_ckt w=400.00n l=40.00n
XX15 net43 CI net098 VNW p11ll_ckt w=310.00n l=40.00n
.ENDS AD1HSV1
****Sub-Circuit for ADH1HSV1, Wed Sep  5 13:54:26 CST 2012****
.SUBCKT ADH1HSV1 A B CO S VDD VSS
XX18 S net098 VSS VPW n11ll_ckt w=285.00n l=40.00n
XX20 bn B VSS VPW n11ll_ckt w=210.00n l=40.00n
XX33 net0106 B net0171 VPW n11ll_ckt w=310.00n l=40.00n
XX28 net0171 A VSS VPW n11ll_ckt w=310.00n l=40.00n
XX32 CO net0106 VSS VPW n11ll_ckt w=210.00n l=40.00n
XX3 net0217 bn net098 VPW n11ll_ckt w=210.00n l=40.00n
XX9 net0147 B net098 VPW n11ll_ckt w=210.00n l=40.00n
XX7 net0217 A VSS VPW n11ll_ckt w=210.00n l=40.00n
XX6 net0147 net0217 VSS VPW n11ll_ckt w=210.00n l=40.00n
XX17 S net098 VDD VNW p11ll_ckt w=430.00n l=40.00n
XX19 bn B VDD VNW p11ll_ckt w=250.00n l=40.00n
XX8 net0147 bn net098 VNW p11ll_ckt w=310.00n l=40.00n
XX24 net0106 B VDD VNW p11ll_ckt w=455.00n l=40.00n
XX23 net0106 A VDD VNW p11ll_ckt w=455.00n l=40.00n
XX2 net0217 B net098 VNW p11ll_ckt w=310.00n l=40.00n
XX31 CO net0106 VDD VNW p11ll_ckt w=315.00n l=40.00n
XX4 net0147 net0217 VDD VNW p11ll_ckt w=310.00n l=40.00n
XX5 net0217 A VDD VNW p11ll_ckt w=420.00n l=40.00n
.ENDS ADH1HSV1
****Sub-Circuit for AND2HSV1, Wed Sep  5 13:54:26 CST 2012****
.SUBCKT AND2HSV1 A1 A2 Z VDD VSS
XX1 net11 A1 net18 VPW n11ll_ckt w=140.00n l=40.00n
XX2 Z net11 VSS VPW n11ll_ckt w=210.00n l=40.00n
XXN1 net18 A2 VSS VPW n11ll_ckt w=140.00n l=40.00n
XX3 Z net11 VDD VNW p11ll_ckt w=310.00n l=40.00n
XX0 net11 A2 VDD VNW p11ll_ckt w=210.00n l=40.00n
XXP1 net11 A1 VDD VNW p11ll_ckt w=210.00n l=40.00n
.ENDS AND2HSV1
****Sub-Circuit for AND2HSV2, Wed Sep  5 13:54:26 CST 2012****
.SUBCKT AND2HSV2 A1 A2 Z VDD VSS
XX1 net11 A1 net18 VPW n11ll_ckt w=140.00n l=40.00n
XX2 Z net11 VSS VPW n11ll_ckt w=310.00n l=40.00n
XXN1 net18 A2 VSS VPW n11ll_ckt w=140.00n l=40.00n
XX3 Z net11 VDD VNW p11ll_ckt w=455.00n l=40.00n
XX0 net11 A2 VDD VNW p11ll_ckt w=210.00n l=40.00n
XXP1 net11 A1 VDD VNW p11ll_ckt w=210.00n l=40.00n
.ENDS AND2HSV2
****Sub-Circuit for AND2HSV4, Wed Sep  5 13:54:26 CST 2012****
.SUBCKT AND2HSV4 A1 A2 Z VDD VSS
XX1 net11 A1 net18 VPW n11ll_ckt w=140.00n l=40.00n
XX2 Z net11 VSS VPW n11ll_ckt w=620.00n l=40.00n
XXN1 net18 A2 VSS VPW n11ll_ckt w=140.00n l=40.00n
XX3 Z net11 VDD VNW p11ll_ckt w=910.00n l=40.00n
XX0 net11 A2 VDD VNW p11ll_ckt w=210.00n l=40.00n
XXP1 net11 A1 VDD VNW p11ll_ckt w=210.00n l=40.00n
.ENDS AND2HSV4
****Sub-Circuit for AND2HSV8, Wed Sep  5 13:54:26 CST 2012****
.SUBCKT AND2HSV8 A1 A2 Z VDD VSS
XX1 net11 A1 net18 VPW n11ll_ckt w=310.00n l=40.00n
XX2 Z net11 VSS VPW n11ll_ckt w=1.24u l=40.00n
XXN1 net18 A2 VSS VPW n11ll_ckt w=310.00n l=40.00n
XX3 Z net11 VDD VNW p11ll_ckt w=1.82u l=40.00n
XX0 net11 A2 VDD VNW p11ll_ckt w=455.00n l=40.00n
XXP1 net11 A1 VDD VNW p11ll_ckt w=455.00n l=40.00n
.ENDS AND2HSV8
****Sub-Circuit for AND3HSV1, Wed Sep  5 13:54:26 CST 2012****
.SUBCKT AND3HSV1 A1 A2 A3 Z VDD VSS
XX1 net11 A1 net18 VPW n11ll_ckt w=260.00n l=40.00n
XX2 Z net11 VSS VPW n11ll_ckt w=210.00n l=40.00n
XX4 net_043 A3 VSS VPW n11ll_ckt w=260.00n l=40.00n
XXN1 net18 A2 net_043 VPW n11ll_ckt w=260.00n l=40.00n
XX5 net11 A3 VDD VNW p11ll_ckt w=210.00n l=40.00n
XX3 Z net11 VDD VNW p11ll_ckt w=310.00n l=40.00n
XX0 net11 A2 VDD VNW p11ll_ckt w=210.00n l=40.00n
XXP1 net11 A1 VDD VNW p11ll_ckt w=210.00n l=40.00n
.ENDS AND3HSV1
****Sub-Circuit for AND3HSV2, Wed Sep  5 13:54:26 CST 2012****
.SUBCKT AND3HSV2 A1 A2 A3 Z VDD VSS
XX1 net11 A1 net18 VPW n11ll_ckt w=260.00n l=40.00n
XX2 Z net11 VSS VPW n11ll_ckt w=310.00n l=40.00n
XX4 net_043 A3 VSS VPW n11ll_ckt w=260.00n l=40.00n
XXN1 net18 A2 net_043 VPW n11ll_ckt w=260.00n l=40.00n
XX5 net11 A3 VDD VNW p11ll_ckt w=210.00n l=40.00n
XX3 Z net11 VDD VNW p11ll_ckt w=455.00n l=40.00n
XX0 net11 A2 VDD VNW p11ll_ckt w=210.00n l=40.00n
XXP1 net11 A1 VDD VNW p11ll_ckt w=210.00n l=40.00n
.ENDS AND3HSV2
****Sub-Circuit for AND3HSV4, Wed Sep  5 13:54:26 CST 2012****
.SUBCKT AND3HSV4 A1 A2 A3 Z VDD VSS
XX1 net11 A1 net18 VPW n11ll_ckt w=260.00n l=40.00n
XX2 Z net11 VSS VPW n11ll_ckt w=620.00n l=40.00n
XX4 net_043 A3 VSS VPW n11ll_ckt w=260.00n l=40.00n
XXN1 net18 A2 net_043 VPW n11ll_ckt w=260.00n l=40.00n
XX5 net11 A3 VDD VNW p11ll_ckt w=210.00n l=40.00n
XX3 Z net11 VDD VNW p11ll_ckt w=910.00n l=40.00n
XX0 net11 A2 VDD VNW p11ll_ckt w=210.00n l=40.00n
XXP1 net11 A1 VDD VNW p11ll_ckt w=210.00n l=40.00n
.ENDS AND3HSV4
****Sub-Circuit for AND3HSV8, Wed Sep  5 13:54:26 CST 2012****
.SUBCKT AND3HSV8 A1 A2 A3 Z VDD VSS
XX1 net11 A1 net18 VPW n11ll_ckt w=310.00n l=40.00n
XX2 Z net11 VSS VPW n11ll_ckt w=1.24u l=40.00n
XX4 net_043 A3 VSS VPW n11ll_ckt w=310.00n l=40.00n
XXN1 net18 A2 net_043 VPW n11ll_ckt w=310.00n l=40.00n
XX5 net11 A3 VDD VNW p11ll_ckt w=455.00n l=40.00n
XX3 Z net11 VDD VNW p11ll_ckt w=1.82u l=40.00n
XX0 net11 A2 VDD VNW p11ll_ckt w=455.00n l=40.00n
XXP1 net11 A1 VDD VNW p11ll_ckt w=455.00n l=40.00n
.ENDS AND3HSV8
****Sub-Circuit for AND4HSV1, Wed Sep  5 13:54:26 CST 2012****
.SUBCKT AND4HSV1 A1 A2 A3 A4 Z VDD VSS
XX6 net_042 A4 VSS VPW n11ll_ckt w=310.00n l=40.00n
XX1 net11 A1 net18 VPW n11ll_ckt w=310.00n l=40.00n
XX2 Z net11 VSS VPW n11ll_ckt w=210.00n l=40.00n
XX4 net_054 A3 net_042 VPW n11ll_ckt w=310.00n l=40.00n
XXN1 net18 A2 net_054 VPW n11ll_ckt w=310.00n l=40.00n
XX7 net11 A4 VDD VNW p11ll_ckt w=210.00n l=40.00n
XX5 net11 A3 VDD VNW p11ll_ckt w=210.00n l=40.00n
XX3 Z net11 VDD VNW p11ll_ckt w=310.00n l=40.00n
XX0 net11 A2 VDD VNW p11ll_ckt w=210.00n l=40.00n
XXP1 net11 A1 VDD VNW p11ll_ckt w=210.00n l=40.00n
.ENDS AND4HSV1
****Sub-Circuit for AND4HSV2, Wed Sep  5 13:54:26 CST 2012****
.SUBCKT AND4HSV2 A1 A2 A3 A4 Z VDD VSS
XX6 net_042 A4 VSS VPW n11ll_ckt w=310.00n l=40.00n
XX1 net11 A1 net18 VPW n11ll_ckt w=310.00n l=40.00n
XX2 Z net11 VSS VPW n11ll_ckt w=310.00n l=40.00n
XX4 net_054 A3 net_042 VPW n11ll_ckt w=310.00n l=40.00n
XXN1 net18 A2 net_054 VPW n11ll_ckt w=310.00n l=40.00n
XX7 net11 A4 VDD VNW p11ll_ckt w=210.00n l=40.00n
XX5 net11 A3 VDD VNW p11ll_ckt w=210.00n l=40.00n
XX3 Z net11 VDD VNW p11ll_ckt w=455.00n l=40.00n
XX0 net11 A2 VDD VNW p11ll_ckt w=210.00n l=40.00n
XXP1 net11 A1 VDD VNW p11ll_ckt w=210.00n l=40.00n
.ENDS AND4HSV2
****Sub-Circuit for AND4HSV4, Wed Sep  5 13:54:26 CST 2012****
.SUBCKT AND4HSV4 A1 A2 A3 A4 Z VDD VSS
XX6 net_042 A4 VSS VPW n11ll_ckt w=310.00n l=40.00n
XX1 net11 A1 net18 VPW n11ll_ckt w=310.00n l=40.00n
XX2 Z net11 VSS VPW n11ll_ckt w=620.00n l=40.00n
XX4 net_054 A3 net_042 VPW n11ll_ckt w=310.00n l=40.00n
XXN1 net18 A2 net_054 VPW n11ll_ckt w=310.00n l=40.00n
XX7 net11 A4 VDD VNW p11ll_ckt w=210.00n l=40.00n
XX5 net11 A3 VDD VNW p11ll_ckt w=210.00n l=40.00n
XX3 Z net11 VDD VNW p11ll_ckt w=910.00n l=40.00n
XX0 net11 A2 VDD VNW p11ll_ckt w=210.00n l=40.00n
XXP1 net11 A1 VDD VNW p11ll_ckt w=210.00n l=40.00n
.ENDS AND4HSV4
****Sub-Circuit for AND4HSV8, Wed Sep  5 13:54:26 CST 2012****
.SUBCKT AND4HSV8 A1 A2 A3 A4 Z VDD VSS
XX6 net_042 A4 VSS VPW n11ll_ckt w=310.00n l=40.00n
XX1 net11 A1 net18 VPW n11ll_ckt w=310.00n l=40.00n
XX2 Z net11 VSS VPW n11ll_ckt w=1.24u l=40.00n
XX4 net_054 A3 net_042 VPW n11ll_ckt w=310.00n l=40.00n
XXN1 net18 A2 net_054 VPW n11ll_ckt w=310.00n l=40.00n
XX7 net11 A4 VDD VNW p11ll_ckt w=455.00n l=40.00n
XX5 net11 A3 VDD VNW p11ll_ckt w=455.00n l=40.00n
XX3 Z net11 VDD VNW p11ll_ckt w=1.82u l=40.00n
XX0 net11 A2 VDD VNW p11ll_ckt w=455.00n l=40.00n
XXP1 net11 A1 VDD VNW p11ll_ckt w=455.00n l=40.00n
.ENDS AND4HSV8
****Sub-Circuit for AOI211HSV1, Wed Sep  5 13:54:26 CST 2012****
.SUBCKT AOI211HSV1 A1 A2 B C ZN VDD VSS
XX6 ZN B VSS VPW n11ll_ckt w=210.00n l=40.00n
XX1 ZN A1 net4 VPW n11ll_ckt w=210.00n l=40.00n
XX4 ZN C VSS VPW n11ll_ckt w=210.00n l=40.00n
XXN1 net4 A2 VSS VPW n11ll_ckt w=210.00n l=40.00n
XX7 net3 A1 VDD VNW p11ll_ckt w=310.00n l=40.00n
XX5 net3 A2 VDD VNW p11ll_ckt w=310.00n l=40.00n
XX0 net2 B net3 VNW p11ll_ckt w=310.00n l=40.00n
XXP1 ZN C net2 VNW p11ll_ckt w=310.00n l=40.00n
.ENDS AOI211HSV1
****Sub-Circuit for AOI211HSV2, Wed Sep  5 13:54:26 CST 2012****
.SUBCKT AOI211HSV2 A1 A2 B C ZN VDD VSS
XX6 ZN B VSS VPW n11ll_ckt w=310.00n l=40.00n
XX1 ZN A1 net4 VPW n11ll_ckt w=310.00n l=40.00n
XX4 ZN C VSS VPW n11ll_ckt w=310.00n l=40.00n
XXN1 net4 A2 VSS VPW n11ll_ckt w=310.00n l=40.00n
XX7 net3 A1 VDD VNW p11ll_ckt w=455.00n l=40.00n
XX5 net3 A2 VDD VNW p11ll_ckt w=455.00n l=40.00n
XX0 net2 B net3 VNW p11ll_ckt w=455.00n l=40.00n
XXP1 ZN C net2 VNW p11ll_ckt w=455.00n l=40.00n
.ENDS AOI211HSV2
****Sub-Circuit for AOI21HSV1, Wed Sep  5 13:54:26 CST 2012****
.SUBCKT AOI21HSV1 A1 A2 B ZN VDD VSS
XX6 ZN B VSS VPW n11ll_ckt w=210.00n l=40.00n
XX1 ZN A1 net4 VPW n11ll_ckt w=210.00n l=40.00n
XXN1 net4 A2 VSS VPW n11ll_ckt w=210.00n l=40.00n
XX7 net3 A1 VDD VNW p11ll_ckt w=310.00n l=40.00n
XX5 net3 A2 VDD VNW p11ll_ckt w=310.00n l=40.00n
XX0 ZN B net3 VNW p11ll_ckt w=310.00n l=40.00n
.ENDS AOI21HSV1
****Sub-Circuit for AOI21HSV2, Wed Sep  5 13:54:26 CST 2012****
.SUBCKT AOI21HSV2 A1 A2 B ZN VDD VSS
XX6 ZN B VSS VPW n11ll_ckt w=310.00n l=40.00n
XX1 ZN A1 net4 VPW n11ll_ckt w=310.00n l=40.00n
XXN1 net4 A2 VSS VPW n11ll_ckt w=310.00n l=40.00n
XX7 net3 A1 VDD VNW p11ll_ckt w=455.00n l=40.00n
XX5 net3 A2 VDD VNW p11ll_ckt w=455.00n l=40.00n
XX0 ZN B net3 VNW p11ll_ckt w=455.00n l=40.00n
.ENDS AOI21HSV2
****Sub-Circuit for AOI221HSV1, Wed Sep  5 13:54:26 CST 2012****
.SUBCKT AOI221HSV1 A1 A2 B1 B2 C ZN VDD VSS
XX6 ZN C VSS VPW n11ll_ckt w=210.00n l=40.00n
XX9 N3 B2 VSS VPW n11ll_ckt w=210.00n l=40.00n
XX1 ZN A1 N14 VPW n11ll_ckt w=210.00n l=40.00n
XX4 ZN B1 N3 VPW n11ll_ckt w=210.00n l=40.00n
XXN1 N14 A2 VSS VPW n11ll_ckt w=210.00n l=40.00n
XX8 N9 B1 N11 VNW p11ll_ckt w=310.00n l=40.00n
XX7 N11 A1 VDD VNW p11ll_ckt w=310.00n l=40.00n
XX5 N11 A2 VDD VNW p11ll_ckt w=310.00n l=40.00n
XX0 N9 B2 N11 VNW p11ll_ckt w=310.00n l=40.00n
XXP1 ZN C N9 VNW p11ll_ckt w=310.00n l=40.00n
.ENDS AOI221HSV1
****Sub-Circuit for AOI221HSV2, Wed Sep  5 13:54:26 CST 2012****
.SUBCKT AOI221HSV2 A1 A2 B1 B2 C ZN VDD VSS
XX6 ZN C VSS VPW n11ll_ckt w=310.00n l=40.00n
XX9 N3 B2 VSS VPW n11ll_ckt w=310.00n l=40.00n
XX1 ZN A1 N14 VPW n11ll_ckt w=310.00n l=40.00n
XX4 ZN B1 N3 VPW n11ll_ckt w=310.00n l=40.00n
XXN1 N14 A2 VSS VPW n11ll_ckt w=310.00n l=40.00n
XX8 N9 B1 N11 VNW p11ll_ckt w=455.00n l=40.00n
XX7 N11 A1 VDD VNW p11ll_ckt w=455.00n l=40.00n
XX5 N11 A2 VDD VNW p11ll_ckt w=455.00n l=40.00n
XX0 N9 B2 N11 VNW p11ll_ckt w=455.00n l=40.00n
XXP1 ZN C N9 VNW p11ll_ckt w=455.00n l=40.00n
.ENDS AOI221HSV2
****Sub-Circuit for AOI222HSV1, Wed Sep  5 13:54:26 CST 2012****
.SUBCKT AOI222HSV1 A1 A2 B1 B2 C1 C2 ZN VDD VSS
XX6 ZN C1 net4 VPW n11ll_ckt w=210.00n l=40.00n
XX10 net4 C2 VSS VPW n11ll_ckt w=210.00n l=40.00n
XX9 net5 B2 VSS VPW n11ll_ckt w=210.00n l=40.00n
XX1 ZN A1 net6 VPW n11ll_ckt w=210.00n l=40.00n
XX4 ZN B1 net5 VPW n11ll_ckt w=210.00n l=40.00n
XXN1 net6 A2 VSS VPW n11ll_ckt w=210.00n l=40.00n
XX8 net2 B2 net1 VNW p11ll_ckt w=310.0n l=40.00n
XX11 ZN A2 net2 VNW p11ll_ckt w=310.0n l=40.00n
XX7 net1 C1 VDD VNW p11ll_ckt w=310.0n l=40.00n
XX5 net1 C2 VDD VNW p11ll_ckt w=310.0n l=40.00n
XX0 net2 B1 net1 VNW p11ll_ckt w=310.0n l=40.00n
XXP1 ZN A1 net2 VNW p11ll_ckt w=310.0n l=40.00n
.ENDS AOI222HSV1
****Sub-Circuit for AOI222HSV2, Wed Sep  5 13:54:26 CST 2012****
.SUBCKT AOI222HSV2 A1 A2 B1 B2 C1 C2 ZN VDD VSS
XX6 ZN C1 net4 VPW n11ll_ckt w=310.00n l=40.00n
XX10 net4 C2 VSS VPW n11ll_ckt w=310.00n l=40.00n
XX9 net5 B2 VSS VPW n11ll_ckt w=310.00n l=40.00n
XX1 ZN A1 net6 VPW n11ll_ckt w=310.00n l=40.00n
XX4 ZN B1 net5 VPW n11ll_ckt w=310.00n l=40.00n
XXN1 net6 A2 VSS VPW n11ll_ckt w=310.00n l=40.00n
XX8 net2 B2 net1 VNW p11ll_ckt w=455.0n l=40.00n
XX11 ZN A2 net2 VNW p11ll_ckt w=455.0n l=40.00n
XX7 net1 C1 VDD VNW p11ll_ckt w=455.0n l=40.00n
XX5 net1 C2 VDD VNW p11ll_ckt w=455.0n l=40.00n
XX0 net2 B1 net1 VNW p11ll_ckt w=455.0n l=40.00n
XXP1 ZN A1 net2 VNW p11ll_ckt w=455.0n l=40.00n
.ENDS AOI222HSV2
****Sub-Circuit for AOI22HSV1, Wed Sep  5 13:54:26 CST 2012****
.SUBCKT AOI22HSV1 A1 A2 B1 B2 ZN VDD VSS
XX9 N64 B2 VSS VPW n11ll_ckt w=210.00n l=40.00n
XX1 ZN A1 N49 VPW n11ll_ckt w=210.00n l=40.00n
XX4 ZN B1 N64 VPW n11ll_ckt w=210.00n l=40.00n
XXN1 N49 A2 VSS VPW n11ll_ckt w=210.00n l=40.00n
XX8 ZN B2 N69 VNW p11ll_ckt w=310.00n l=40.00n
XX7 N69 A2 VDD VNW p11ll_ckt w=310.00n l=40.00n
XX5 N69 A1 VDD VNW p11ll_ckt w=310.00n l=40.00n
XX0 ZN B1 N69 VNW p11ll_ckt w=310.00n l=40.00n
.ENDS AOI22HSV1
****Sub-Circuit for AOI22HSV2, Wed Sep  5 13:54:26 CST 2012****
.SUBCKT AOI22HSV2 A1 A2 B1 B2 ZN VDD VSS
XX9 N64 B2 VSS VPW n11ll_ckt w=310.00n l=40.00n
XX1 ZN A1 N49 VPW n11ll_ckt w=310.00n l=40.00n
XX4 ZN B1 N64 VPW n11ll_ckt w=310.00n l=40.00n
XXN1 N49 A2 VSS VPW n11ll_ckt w=310.00n l=40.00n
XX8 ZN B2 N69 VNW p11ll_ckt w=455.00n l=40.00n
XX7 N69 A2 VDD VNW p11ll_ckt w=455.00n l=40.00n
XX5 N69 A1 VDD VNW p11ll_ckt w=455.00n l=40.00n
XX0 ZN B1 N69 VNW p11ll_ckt w=455.00n l=40.00n
.ENDS AOI22HSV2
****Sub-Circuit for AOI31HSV1, Wed Sep  5 13:54:26 CST 2012****
.SUBCKT AOI31HSV1 A1 A2 A3 B ZN VDD VSS
XX6 ZN B VSS VPW n11ll_ckt w=210.00n l=40.00n
XX1 ZN A1 net3 VPW n11ll_ckt w=210.00n l=40.00n
XX9 net4 A3 VSS VPW n11ll_ckt w=210.00n l=40.00n
XXN1 net3 A2 net4 VPW n11ll_ckt w=210.00n l=40.00n
XX8 net1 A3 VDD VNW p11ll_ckt w=310.00n l=40.00n
XX7 net1 A1 VDD VNW p11ll_ckt w=310.00n l=40.00n
XX5 net1 A2 VDD VNW p11ll_ckt w=310.00n l=40.00n
XX0 ZN B net1 VNW p11ll_ckt w=310.00n l=40.00n
.ENDS AOI31HSV1
****Sub-Circuit for AOI31HSV2, Wed Sep  5 13:54:26 CST 2012****
.SUBCKT AOI31HSV2 A1 A2 A3 B ZN VDD VSS
XX6 ZN B VSS VPW n11ll_ckt w=310.00n l=40.00n
XX1 ZN A1 net3 VPW n11ll_ckt w=310.00n l=40.00n
XX9 net4 A3 VSS VPW n11ll_ckt w=310.00n l=40.00n
XXN1 net3 A2 net4 VPW n11ll_ckt w=310.00n l=40.00n
XX8 net1 A3 VDD VNW p11ll_ckt w=455.00n l=40.00n
XX7 net1 A1 VDD VNW p11ll_ckt w=455.00n l=40.00n
XX5 net1 A2 VDD VNW p11ll_ckt w=455.00n l=40.00n
XX0 ZN B net1 VNW p11ll_ckt w=455.00n l=40.00n
.ENDS AOI31HSV2
****Sub-Circuit for AOI32HSV1, Wed Sep  5 13:54:26 CST 2012****
.SUBCKT AOI32HSV1 A1 A2 A3 B1 B2 ZN VDD VSS
XX6 ZN B1 net5 VPW n11ll_ckt w=210.00n l=40.00n
XX1 ZN A1 net3 VPW n11ll_ckt w=210.00n l=40.00n
XX9 net4 A3 VSS VPW n11ll_ckt w=210.00n l=40.00n
XX11 net5 B2 VSS VPW n11ll_ckt w=210.00n l=40.00n
XXN1 net3 A2 net4 VPW n11ll_ckt w=210.00n l=40.00n
XX8 net1 A3 VDD VNW p11ll_ckt w=310.00n l=40.00n
XX10 ZN B2 net1 VNW p11ll_ckt w=310.00n l=40.00n
XX7 net1 A1 VDD VNW p11ll_ckt w=310.00n l=40.00n
XX5 net1 A2 VDD VNW p11ll_ckt w=310.00n l=40.00n
XX0 ZN B1 net1 VNW p11ll_ckt w=310.00n l=40.00n
.ENDS AOI32HSV1
****Sub-Circuit for AOI32HSV2, Wed Sep  5 13:54:26 CST 2012****
.SUBCKT AOI32HSV2 A1 A2 A3 B1 B2 ZN VDD VSS
XX6 ZN B1 net5 VPW n11ll_ckt w=310.00n l=40.00n
XX1 ZN A1 net3 VPW n11ll_ckt w=310.00n l=40.00n
XX9 net4 A3 VSS VPW n11ll_ckt w=310.00n l=40.00n
XX11 net5 B2 VSS VPW n11ll_ckt w=310.00n l=40.00n
XXN1 net3 A2 net4 VPW n11ll_ckt w=310.00n l=40.00n
XX8 net1 A3 VDD VNW p11ll_ckt w=455.00n l=40.00n
XX10 ZN B2 net1 VNW p11ll_ckt w=455.00n l=40.00n
XX7 net1 A1 VDD VNW p11ll_ckt w=455.00n l=40.00n
XX5 net1 A2 VDD VNW p11ll_ckt w=455.00n l=40.00n
XX0 ZN B1 net1 VNW p11ll_ckt w=455.00n l=40.00n
.ENDS AOI32HSV2
****Sub-Circuit for AOI33HSV1, Wed Sep  5 13:54:26 CST 2012****
.SUBCKT AOI33HSV1 A1 A2 A3 B1 B2 B3 ZN VDD VSS
XX12 net_69 B3 VSS VPW n11ll_ckt w=210.00n l=40.00n
XX6 ZN B1 net5 VPW n11ll_ckt w=210.00n l=40.00n
XX1 ZN A1 net3 VPW n11ll_ckt w=210.00n l=40.00n
XX9 net4 A3 VSS VPW n11ll_ckt w=210.00n l=40.00n
XX11 net5 B2 net_69 VPW n11ll_ckt w=210.00n l=40.00n
XXN1 net3 A2 net4 VPW n11ll_ckt w=210.00n l=40.00n
XX8 net1 A3 VDD VNW p11ll_ckt w=310.00n l=40.00n
XX10 ZN B2 net1 VNW p11ll_ckt w=310.00n l=40.00n
XX7 net1 A1 VDD VNW p11ll_ckt w=310.00n l=40.00n
XX5 net1 A2 VDD VNW p11ll_ckt w=310.00n l=40.00n
XX13 ZN B3 net1 VNW p11ll_ckt w=310.00n l=40.00n
XX0 ZN B1 net1 VNW p11ll_ckt w=310.00n l=40.00n
.ENDS AOI33HSV1
****Sub-Circuit for AOI33HSV2, Wed Sep  5 13:54:26 CST 2012****
.SUBCKT AOI33HSV2 A1 A2 A3 B1 B2 B3 ZN VDD VSS
XX12 net_69 B3 VSS VPW n11ll_ckt w=310.00n l=40.00n
XX6 ZN B1 net5 VPW n11ll_ckt w=310.00n l=40.00n
XX1 ZN A1 net3 VPW n11ll_ckt w=310.00n l=40.00n
XX9 net4 A3 VSS VPW n11ll_ckt w=310.00n l=40.00n
XX11 net5 B2 net_69 VPW n11ll_ckt w=310.00n l=40.00n
XXN1 net3 A2 net4 VPW n11ll_ckt w=310.00n l=40.00n
XX8 net1 A3 VDD VNW p11ll_ckt w=455.00n l=40.00n
XX10 ZN B2 net1 VNW p11ll_ckt w=455.00n l=40.00n
XX7 net1 A1 VDD VNW p11ll_ckt w=455.00n l=40.00n
XX5 net1 A2 VDD VNW p11ll_ckt w=455.00n l=40.00n
XX13 ZN B3 net1 VNW p11ll_ckt w=455.00n l=40.00n
XX0 ZN B1 net1 VNW p11ll_ckt w=455.00n l=40.00n
.ENDS AOI33HSV2
****Sub-Circuit for BUFHSV1, Wed Sep  5 13:54:26 CST 2012****
.SUBCKT BUFHSV1 I Z VDD VSS
XX2 Z net7 VSS VPW n11ll_ckt w=210.00n l=40.00n
XX0 net7 I VSS VPW n11ll_ckt w=140.00n l=40.00n
XX3 Z net7 VDD VNW p11ll_ckt w=310.00n l=40.00n
XX1 net7 I VDD VNW p11ll_ckt w=210.00n l=40.00n
.ENDS BUFHSV1
****Sub-Circuit for BUFHSV12, Wed Sep  5 13:54:26 CST 2012****
.SUBCKT BUFHSV12 I Z VDD VSS
XX2 Z net7 VSS VPW n11ll_ckt w=1.86u l=40.00n
XX0 net7 I VSS VPW n11ll_ckt w=720.00n l=40.00n
XX3 Z net7 VDD VNW p11ll_ckt w=2.73u l=40.00n
XX1 net7 I VDD VNW p11ll_ckt w=1.08u l=40.00n
.ENDS BUFHSV12
****Sub-Circuit for BUFHSV16, Wed Sep  5 13:54:26 CST 2012****
.SUBCKT BUFHSV16 I Z VDD VSS
XX2 Z net7 VSS VPW n11ll_ckt w=2.48u l=40.00n
XX0 net7 I VSS VPW n11ll_ckt w=930.00n l=40.00n
XX3 Z net7 VDD VNW p11ll_ckt w=3.64u l=40.00n
XX1 net7 I VDD VNW p11ll_ckt w=1.365u l=40.00n
.ENDS BUFHSV16
****Sub-Circuit for BUFHSV2, Wed Sep  5 13:54:26 CST 2012****
.SUBCKT BUFHSV2 I Z VDD VSS
XX2 Z net7 VSS VPW n11ll_ckt w=310.00n l=40.00n
XX0 net7 I VSS VPW n11ll_ckt w=140.00n l=40.00n
XX3 Z net7 VDD VNW p11ll_ckt w=455.00n l=40.00n
XX1 net7 I VDD VNW p11ll_ckt w=210.00n l=40.00n
.ENDS BUFHSV2
****Sub-Circuit for BUFHSV20, Wed Sep  5 13:54:26 CST 2012****
.SUBCKT BUFHSV20 I Z VDD VSS
XX2 Z net7 VSS VPW n11ll_ckt w=3.1u l=40.00n
XX0 net7 I VSS VPW n11ll_ckt w=1.24u l=40.00n
XX3 Z net7 VDD VNW p11ll_ckt w=4.55u l=40.00n
XX1 net7 I VDD VNW p11ll_ckt w=1.82u l=40.00n
.ENDS BUFHSV20
****Sub-Circuit for BUFHSV24, Wed Sep  5 13:54:26 CST 2012****
.SUBCKT BUFHSV24 I Z VDD VSS
XX2 Z net7 VSS VPW n11ll_ckt w=3.72u l=40.00n
XX0 net7 I VSS VPW n11ll_ckt w=1.55u l=40.00n
XX3 Z net7 VDD VNW p11ll_ckt w=5.46u l=40.00n
XX1 net7 I VDD VNW p11ll_ckt w=2.275u l=40.00n
.ENDS BUFHSV24
****Sub-Circuit for BUFHSV3, Wed Sep  5 13:54:26 CST 2012****
.SUBCKT BUFHSV3 I Z VDD VSS
XX2 Z net7 VSS VPW n11ll_ckt w=460.00n l=40.00n
XX0 net7 I VSS VPW n11ll_ckt w=190.00n l=40.00n
XX3 Z net7 VDD VNW p11ll_ckt w=700.00n l=40.00n
XX1 net7 I VDD VNW p11ll_ckt w=280.00n l=40.00n
.ENDS BUFHSV3
****Sub-Circuit for BUFHSV4, Wed Sep  5 13:54:26 CST 2012****
.SUBCKT BUFHSV4 I Z VDD VSS
XX2 Z net7 VSS VPW n11ll_ckt w=620.00n l=40.00n
XX0 net7 I VSS VPW n11ll_ckt w=240.00n l=40.00n
XX3 Z net7 VDD VNW p11ll_ckt w=910.00n l=40.00n
XX1 net7 I VDD VNW p11ll_ckt w=370.00n l=40.00n
.ENDS BUFHSV4
****Sub-Circuit for BUFHSV6, Wed Sep  5 13:54:26 CST 2012****
.SUBCKT BUFHSV6 I Z VDD VSS
XX2 Z net7 VSS VPW n11ll_ckt w=930.00n l=40.00n
XX0 net7 I VSS VPW n11ll_ckt w=310.00n l=40.00n
XX3 Z net7 VDD VNW p11ll_ckt w=1.365u l=40.00n
XX1 net7 I VDD VNW p11ll_ckt w=455.00n l=40.00n
.ENDS BUFHSV6
****Sub-Circuit for BUFHSV8, Wed Sep  5 13:54:26 CST 2012****
.SUBCKT BUFHSV8 I Z VDD VSS
XX2 Z net7 VSS VPW n11ll_ckt w=1.24u l=40.00n
XX0 net7 I VSS VPW n11ll_ckt w=480.00n l=40.00n
XX3 Z net7 VDD VNW p11ll_ckt w=1.82u l=40.00n
XX1 net7 I VDD VNW p11ll_ckt w=740.00n l=40.00n
.ENDS BUFHSV8
****Sub-Circuit for CKMUX2HSV1, Wed Sep  5 13:54:26 CST 2012****
.SUBCKT CKMUX2HSV1 I0 I1 S Z VDD VSS
XX47 net41 S net64 VPW n11ll_ckt w=270.00n l=40.00n
XX51 Z net64 VSS VPW n11ll_ckt w=180.00n l=40.00n
XX49 net39 I0 VSS VPW n11ll_ckt w=270.00n l=40.00n
XX31 net41 I1 VSS VPW n11ll_ckt w=270.00n l=40.00n
XX53 net43 S VSS VPW n11ll_ckt w=270.00n l=40.00n
XX36 net39 net43 net64 VPW n11ll_ckt w=270.00n l=40.00n
XX50 net39 I0 VDD VNW p11ll_ckt w=310.00n l=40.00n
XX52 Z net64 VDD VNW p11ll_ckt w=315.00n l=40.00n
XX48 net41 net43 net64 VNW p11ll_ckt w=310.00n l=40.00n
XX32 net41 I1 VDD VNW p11ll_ckt w=310.00n l=40.00n
XX54 net43 S VDD VNW p11ll_ckt w=250.00n l=40.00n
XX39 net39 S net64 VNW p11ll_ckt w=300.00n l=40.00n
.ENDS CKMUX2HSV1
****Sub-Circuit for CKMUX2HSV2, Wed Sep  5 13:54:26 CST 2012****
.SUBCKT CKMUX2HSV2 I0 I1 S Z VDD VSS
XX47 net41 S net64 VPW n11ll_ckt w=270n l=40.00n
XX51 Z net64 VSS VPW n11ll_ckt w=250.00n l=40.00n
XX49 net39 I0 VSS VPW n11ll_ckt w=270.00n l=40.00n
XX31 net41 I1 VSS VPW n11ll_ckt w=270.00n l=40.00n
XX53 net43 S VSS VPW n11ll_ckt w=270.00n l=40.00n
XX36 net39 net43 net64 VPW n11ll_ckt w=270.00n l=40.00n
XX50 net39 I0 VDD VNW p11ll_ckt w=310.00n l=40.00n
XX52 Z net64 VDD VNW p11ll_ckt w=430.00n l=40.00n
XX48 net41 net43 net64 VNW p11ll_ckt w=310.00n l=40.00n
XX32 net41 I1 VDD VNW p11ll_ckt w=310.00n l=40.00n
XX54 net43 S VDD VNW p11ll_ckt w=250.00n l=40.00n
XX39 net39 S net64 VNW p11ll_ckt w=300.00n l=40.00n
.ENDS CKMUX2HSV2
****Sub-Circuit for CLKAND2HSV1, Wed Sep  5 13:54:26 CST 2012****
.SUBCKT CLKAND2HSV1 A1 A2 Z VDD VSS
XX1 net11 A1 net18 VPW n11ll_ckt w=310.00n l=40.00n
XX2 Z net11 VSS VPW n11ll_ckt w=180.00n l=40.00n
XXN1 net18 A2 VSS VPW n11ll_ckt w=310.00n l=40.00n
XX3 Z net11 VDD VNW p11ll_ckt w=315.00n l=40.00n
XX0 net11 A2 VDD VNW p11ll_ckt w=210.00n l=40.00n
XXP1 net11 A1 VDD VNW p11ll_ckt w=210.00n l=40.00n
.ENDS CLKAND2HSV1
****Sub-Circuit for CLKAND2HSV2, Wed Sep  5 13:54:26 CST 2012****
.SUBCKT CLKAND2HSV2 A1 A2 Z VDD VSS
XX1 net11 A1 net18 VPW n11ll_ckt w=310.00n l=40.00n
XX2 Z net11 VSS VPW n11ll_ckt w=250.00n l=40.00n
XXN1 net18 A2 VSS VPW n11ll_ckt w=310.00n l=40.00n
XX3 Z net11 VDD VNW p11ll_ckt w=455.00n l=40.00n
XX0 net11 A2 VDD VNW p11ll_ckt w=210.00n l=40.00n
XXP1 net11 A1 VDD VNW p11ll_ckt w=210.00n l=40.00n
.ENDS CLKAND2HSV2
****Sub-Circuit for CLKAND2HSV4, Wed Sep  5 13:54:26 CST 2012****
.SUBCKT CLKAND2HSV4 A1 A2 Z VDD VSS
XX1 net11 A1 net18 VPW n11ll_ckt w=310.00n l=40.00n
XX2 Z net11 VSS VPW n11ll_ckt w=620.00n l=40.00n
XXN1 net18 A2 VSS VPW n11ll_ckt w=310.00n l=40.00n
XX3 Z net11 VDD VNW p11ll_ckt w=1.365u l=40.00n
XX0 net11 A2 VDD VNW p11ll_ckt w=210.00n l=40.00n
XXP1 net11 A1 VDD VNW p11ll_ckt w=210.00n l=40.00n
.ENDS CLKAND2HSV4
****Sub-Circuit for CLKAND2HSV8, Wed Sep  5 13:54:26 CST 2012****
.SUBCKT CLKAND2HSV8 A1 A2 Z VDD VSS
XX1 net11 A1 net18 VPW n11ll_ckt w=310.00n l=40.00n
XX2 Z net11 VSS VPW n11ll_ckt w=1.215u l=40.00n
XXN1 net18 A2 VSS VPW n11ll_ckt w=310.00n l=40.00n
XX3 Z net11 VDD VNW p11ll_ckt w=2.73u l=40.00n
XX0 net11 A2 VDD VNW p11ll_ckt w=210.00n l=40.00n
XXP1 net11 A1 VDD VNW p11ll_ckt w=210.00n l=40.00n
.ENDS CLKAND2HSV8
****Sub-Circuit for CLKBUFHSV1, Wed Sep  5 13:54:26 CST 2012****
.SUBCKT CLKBUFHSV1 I Z VDD VSS
XX2 Z net7 VSS VPW n11ll_ckt w=180.00n l=40.00n
XX0 net7 I VSS VPW n11ll_ckt w=140.00n l=40.00n
XX3 Z net7 VDD VNW p11ll_ckt w=315.00n l=40.00n
XX1 net7 I VDD VNW p11ll_ckt w=210.00n l=40.00n
.ENDS CLKBUFHSV1
****Sub-Circuit for CLKBUFHSV12, Wed Sep  5 13:54:26 CST 2012****
.SUBCKT CLKBUFHSV12 I Z VDD VSS
XX2 Z net7 VSS VPW n11ll_ckt w=1.35u l=40.00n
XX0 net7 I VSS VPW n11ll_ckt w=450.00n l=40.00n
XX3 Z net7 VDD VNW p11ll_ckt w=2.73u l=40.00n
XX1 net7 I VDD VNW p11ll_ckt w=910.00n l=40.00n
.ENDS CLKBUFHSV12
****Sub-Circuit for CLKBUFHSV16, Wed Sep  5 13:54:26 CST 2012****
.SUBCKT CLKBUFHSV16 I Z VDD VSS
XX2 Z net7 VSS VPW n11ll_ckt w=1.8u l=40.00n
XX0 net7 I VSS VPW n11ll_ckt w=590.00n l=40.00n
XX3 Z net7 VDD VNW p11ll_ckt w=3.64u l=40.00n
XX1 net7 I VDD VNW p11ll_ckt w=1.2u l=40.00n
.ENDS CLKBUFHSV16
****Sub-Circuit for CLKBUFHSV2, Wed Sep  5 13:54:26 CST 2012****
.SUBCKT CLKBUFHSV2 I Z VDD VSS
XX2 Z net7 VSS VPW n11ll_ckt w=250.00n l=40.00n
XX0 net7 I VSS VPW n11ll_ckt w=140.00n l=40.00n
XX3 Z net7 VDD VNW p11ll_ckt w=455.00n l=40.00n
XX1 net7 I VDD VNW p11ll_ckt w=210.00n l=40.00n
.ENDS CLKBUFHSV2
****Sub-Circuit for CLKBUFHSV20, Wed Sep  5 13:54:26 CST 2012****
.SUBCKT CLKBUFHSV20 I Z VDD VSS
XX2 Z net7 VSS VPW n11ll_ckt w=2.295u l=40.00n
XX0 net7 I VSS VPW n11ll_ckt w=765.00n l=40.00n
XX3 Z net7 VDD VNW p11ll_ckt w=4.55u l=40.00n
XX1 net7 I VDD VNW p11ll_ckt w=1.6u l=40.00n
.ENDS CLKBUFHSV20
****Sub-Circuit for CLKBUFHSV24, Wed Sep  5 13:54:26 CST 2012****
.SUBCKT CLKBUFHSV24 I Z VDD VSS
XX2 Z net7 VSS VPW n11ll_ckt w=2.7u l=40.00n
XX0 net7 I VSS VPW n11ll_ckt w=900.00n l=40.00n
XX3 Z net7 VDD VNW p11ll_ckt w=5.46u l=40.00n
XX1 net7 I VDD VNW p11ll_ckt w=1.82u l=40.00n
.ENDS CLKBUFHSV24
****Sub-Circuit for CLKBUFHSV3, Wed Sep  5 13:54:26 CST 2012****
.SUBCKT CLKBUFHSV3 I Z VDD VSS
XX2 Z net7 VSS VPW n11ll_ckt w=380.00n l=40.00n
XX0 net7 I VSS VPW n11ll_ckt w=190.00n l=40.00n
XX3 Z net7 VDD VNW p11ll_ckt w=700.00n l=40.00n
XX1 net7 I VDD VNW p11ll_ckt w=350.00n l=40.00n
.ENDS CLKBUFHSV3
****Sub-Circuit for CLKBUFHSV4, Wed Sep  5 13:54:26 CST 2012****
.SUBCKT CLKBUFHSV4 I Z VDD VSS
XX2 Z net7 VSS VPW n11ll_ckt w=500.00n l=40.00n
XX0 net7 I VSS VPW n11ll_ckt w=260.00n l=40.00n
XX3 Z net7 VDD VNW p11ll_ckt w=910.00n l=40.00n
XX1 net7 I VDD VNW p11ll_ckt w=445.00n l=40.00n
.ENDS CLKBUFHSV4
****Sub-Circuit for CLKBUFHSV6, Wed Sep  5 13:54:26 CST 2012****
.SUBCKT CLKBUFHSV6 I Z VDD VSS
XX2 Z net7 VSS VPW n11ll_ckt w=720.00n l=40.00n
XX0 net7 I VSS VPW n11ll_ckt w=240.00n l=40.00n
XX3 Z net7 VDD VNW p11ll_ckt w=1.365u l=40.00n
XX1 net7 I VDD VNW p11ll_ckt w=455.00n l=40.00n
.ENDS CLKBUFHSV6
****Sub-Circuit for CLKBUFHSV8, Wed Sep  5 13:54:26 CST 2012****
.SUBCKT CLKBUFHSV8 I Z VDD VSS
XX2 Z net7 VSS VPW n11ll_ckt w=930.00n l=40.00n
XX0 net7 I VSS VPW n11ll_ckt w=300.00n l=40.00n
XX3 Z net7 VDD VNW p11ll_ckt w=1.82u l=40.00n
XX1 net7 I VDD VNW p11ll_ckt w=610.00n l=40.00n
.ENDS CLKBUFHSV8
****Sub-Circuit for CLKLANQHSV1, Wed Sep  5 13:54:26 CST 2012****
.SUBCKT CLKLANQHSV1 CK E Q TE VDD VSS
XX6 net0112 TE VSS VPW n11ll_ckt w=225.00n l=40.00n
XX9 net0112 E VSS VPW n11ll_ckt w=225.00n l=40.00n
XX52 nt12 net076 VSS VPW n11ll_ckt w=150.00n l=40.00n
XX1 c cn VSS VPW n11ll_ckt w=320.00n l=40.00n
XX2 cn CK VSS VPW n11ll_ckt w=140.00n l=40.00n
XX22 Q net0106 VSS VPW n11ll_ckt w=200.00n l=40.00n
XX36 net0128 c nt12 VPW n11ll_ckt w=150.00n l=40.00n
XX7 net0106 c net068 VPW n11ll_ckt w=310.00n l=40.00n
XX16 net068 net076 VSS VPW n11ll_ckt w=310.00n l=40.00n
XX3 net076 net0128 VSS VPW n11ll_ckt w=225.00n l=40.00n
XX15 net0128 cn net0112 VPW n11ll_ckt w=225.00n l=40.00n
XX17 net0128 c net170 VNW p11ll_ckt w=280.00n l=40.00n
XX0 net076 net0128 VDD VNW p11ll_ckt w=280.00n l=40.00n
XX53 nt11 net076 VDD VNW p11ll_ckt w=155.00n l=40.00n
XX4 c cn VDD VNW p11ll_ckt w=455.00n l=40.00n
XX5 cn CK VDD VNW p11ll_ckt w=210.00n l=40.00n
XX21 Q net0106 VDD VNW p11ll_ckt w=320.00n l=40.00n
XX39 net0128 cn nt11 VNW p11ll_ckt w=155.00n l=40.00n
XX18 net0106 c VDD VNW p11ll_ckt w=455.00n l=40.00n
XX19 net0106 net076 VDD VNW p11ll_ckt w=455.00n l=40.00n
XX8 net0171 TE VDD VNW p11ll_ckt w=210.00n l=40.00n
XX10 net170 E net0171 VNW p11ll_ckt w=280.00n l=40.00n
.ENDS CLKLANQHSV1
****Sub-Circuit for CLKLANQHSV12, Wed Sep  5 13:54:26 CST 2012****
.SUBCKT CLKLANQHSV12 CK E Q TE VDD VSS
XX6 net0112 TE VSS VPW n11ll_ckt w=225.00n l=40.00n
XX9 net0112 E VSS VPW n11ll_ckt w=225.00n l=40.00n
XX52 nt12 net076 VSS VPW n11ll_ckt w=150.00n l=40.00n
XX1 c cn VSS VPW n11ll_ckt w=320.00n l=40.00n
XX2 cn CK VSS VPW n11ll_ckt w=140.00n l=40.00n
XX22 Q net0106 VSS VPW n11ll_ckt w=1.86u l=40.00n
XX36 net0128 c nt12 VPW n11ll_ckt w=150.00n l=40.00n
XX7 net0106 c net068 VPW n11ll_ckt w=310.00n l=40.00n
XX16 net068 net076 VSS VPW n11ll_ckt w=310.00n l=40.00n
XX3 net076 net0128 VSS VPW n11ll_ckt w=225.00n l=40.00n
XX15 net0128 cn net0112 VPW n11ll_ckt w=225.00n l=40.00n
XX17 net0128 c net170 VNW p11ll_ckt w=280.00n l=40.00n
XX0 net076 net0128 VDD VNW p11ll_ckt w=280.00n l=40.00n
XX53 nt11 net076 VDD VNW p11ll_ckt w=150.00n l=40.00n
XX4 c cn VDD VNW p11ll_ckt w=455.00n l=40.00n
XX5 cn CK VDD VNW p11ll_ckt w=210.00n l=40.00n
XX21 Q net0106 VDD VNW p11ll_ckt w=2.73u l=40.00n
XX39 net0128 cn nt11 VNW p11ll_ckt w=150.00n l=40.00n
XX18 net0106 c VDD VNW p11ll_ckt w=455.00n l=40.00n
XX19 net0106 net076 VDD VNW p11ll_ckt w=455.00n l=40.00n
XX8 net0171 TE VDD VNW p11ll_ckt w=210.00n l=40.00n
XX10 net170 E net0171 VNW p11ll_ckt w=280.00n l=40.00n
.ENDS CLKLANQHSV12
****Sub-Circuit for CLKLANQHSV16, Wed Sep  5 13:54:26 CST 2012****
.SUBCKT CLKLANQHSV16 CK E Q TE VDD VSS