* 
* No part of this file can be released without the consent of SMIC.
*
*************************************************************************************************
*    SMIC 0.11um Mixed Signal 1P8M(1P7M, 1P6M, 1P5M) 1.2V/3.3V SPICE model (for HSPICE only)    *
*************************************************************************************************
*
* Release version    : 1.24
*
* Release date       : 1/16/2015
*
* Simulation tool    : Synopsys Star-HSPICE version C-2009.09
*
* Model type         :
*   Junction Diode   : HSPICE Level 3
* 
* Junction Diode     :
*        *------------------------------------------* 
*        | Junction Diode type|    1.2V   |   3.3V  |
*        |==========================================| 
*        |      N+/PWELL      |  ndio12   | ndio33  |
*        |------------------------------------------|
*        |      P+/NWELL      |  pdio12   | pdio33  |
*        |------------------------------------------|
*        |   Native N+/PWELL  |  ntdio12  | ntdio33 |
*        |------------------------------------------|
*        |      NWELL/PSUB    |        nwdio        |
*        *------------------------------------------*
*        |     HVT N+/PWELL   | nhvtdio12 |   NA    |
*        |------------------------------------------|
*        |     HVT P+/NWELL   | phvtdio12 |   NA    |
*        *------------------------------------------*
*        |     LVT N+/PWELL   | nlvtdio12 |   NA    |
*        |------------------------------------------|
*        |     LVT P+/NWELL   | plvtdio12 |   NA    |
*        *------------------------------------------*
*        |      BPW/DNWELL    |    (Na)   | rwdio33 |
*        *------------------------------------------*
*        |     DNWELL/PWELL   |    (Na)   | dnwdio33|
*        *------------------------------------------*
*        |     nwell/psub     |   parasitic_nwd     | 
*        |------------------------------------------|
*        |    rwell/dnwell    |   parasitic_rwd     |
*        |------------------------------------------|
*        |     dnwell/psub    |   parasitic_dnwd    |  
*        *------------------------------------------*
*
* The valid temperature range is from -40c to 125c
*
***********************************************************************************
*                            1.2V N+/PWELL DIODE MODEL                            *
***********************************************************************************
*
.model ndio12 d
+LEVEL    = 3                   JS       = '1.06E-06+DJS_NDIO12' JSW      = '1.00E-15+DJSW_NDIO12'            
+N        = '1.083+DN_NDIO12'   RS       = 1.0E-010              IK       = 1.0E+21           
+IKR      = 2.78E+05            BV       = 10.25                 IBV      = 277.8             
+TRS      = 1.00E-05            EG       = 1.16                  TREF     = 25.0                
+XTI      = 3.0                 TLEV     = 1                     TLEVC    = 1
+CJ       = '1.315E-03+DCJ_NDIO12'
+CJSW     = '1.04E-10+DCJSW_NDIO12'
+MJ       = 0.458               PB       = 0.791               
+MJSW     = 0.593               PHP      = 0.955                   
+CTA      = 7.59E-04            CTP      = 5.85E-04              TPB      = 1.12E-03             
+TPHP     = 9.24E-04            FC       = 0                     FCS      = 0   
+AREA     = 3.60E-09            PJ       = 2.4E-04            
*                        
***********************************************************************************
*                            1.2V P+/NWELL DIODE MODEL                            *
***********************************************************************************
*                      
.model pdio12 d
+LEVEL    = 3                   JS       = '2.30E-07+DJS_PDIO12' JSW      = '1.31E-13+DJSW_PDIO12'           
+N        = '1.0188+DN_PDIO12'  RS       = 1.0E-010              IK       = 1.0E+21 
+IKR      = 2.78E+05            BV       = 10.1                  IBV      = 277.8
+TRS      = 1.09E-03            EG       = 1.16                  TREF     = 25.0
+XTI      = 3.0                 TLEV     = 1                     TLEVC    = 1
+CJ       = '1.22E-03+DCJ_PDIO12'
+CJSW     = '7.53E-11+DCJSW_PDIO12'
+MJ       = 0.431               PB       = 0.785
+MJSW     = 0.346               PHP      = 0.472                   
+CTA      = 8.72E-04            CTP      = 7.55E-04              TPB      = 0.0012231            
+TPHP     = 3.60E-04            FC       = 0                     FCS      = 0   
+AREA     = 3.60E-09            PJ       = 2.4E-04
*
***********************************************************************************
*                            3.3V N+/PWELL DIODE MODEL                            *
***********************************************************************************
*
.model ndio33 d
+LEVEL    = 3                       JS       = '1.50E-07+DJS_NDIO33' JSW      = '1.00E-15+DJSW_NDIO33'             
+N        = '1.012+DN_NDIO33'       RS       = 1.0E-010              IK       = 1.0E+21                   
+IKR      = 2.78E+05                BV       = 11.36                 IBV      = 277.8            
+TRS      = 1.11E-03                EG       = 1.16                  TREF     = 25.0                
+XTI      = 3.0                     TLEV     = 1                     TLEVC    = 1
+CJ       = '9.00E-04+DCJ_NDIO33'   MJ       = 0.267                 PB       = 0.653               
+CJSW     = '1.27E-10+DCJSW_NDIO33' MJSW     = 0.193                 PHP      = 0.996               
+TPB      = 1.7E-03                TPHP     = 1.42E-03              FCS      = 0
+CTA      = 9.50E-04                CTP      = 6.17E-04              FC       = 0
+AREA     = 3.60E-09                PJ       = 2.4E-04  
*
***********************************************************************************
*                            3.3V P+/NWELL DIODE MODEL                            *
***********************************************************************************
*
.model pdio33 d
+LEVEL    = 3                       JS       = '1.82E-07+DJS_PDIO33' JSW      = '1.00E-15+DJSW_PDIO33'             
+N        = '1.0187+DN_PDIO33'      RS       = 1.0E-010              IK       = 1.0E+21            
+IKR      = 2.78E+05                BV       = 9.24                  IBV      = 277.8                   
+TRS      = 9.86E-04                EG       = 1.16                  TREF     = 25.0                
+XTI      = 3.0                     TLEV     = 1                     TLEVC    = 1
+CJ       = '1.22E-03+DCJ_PDIO33'   MJ       = 0.378                 PB       = 0.814                
+CJSW     = '4.56E-11+DCJSW_PDIO33' MJSW     = 0.304                 PHP      = 0.923               
+TPB      = 1.50E-03                TPHP     = 7.30E-04              FCS      = 0    
+CTA      = 7.80E-04                CTP      = 9.11E-04              FC       = 0
+AREA     = 3.60E-09                PJ       = 2.40E-04
*
***********************************************************************************
*                       1.2V Native N+/PWELL DIODE MODEL                          *
***********************************************************************************
*                      
.model ntdio12 d
+LEVEL    = 3                   JS       = '4.52E-06+DJS_NTDIO12' JSW      = '7.15E-15+DJSW_NTDIO12'
+N        = '1.06+DN_NTDIO12'   RS       = 1.0E-010               IK       = 1.0E+21 
+IKR      = 2.78E+05            BV       = 17.25                  IBV      = 277.8
+TRS      = 2.10E-03            EG       = 1.16                   TREF     = 25.0                
+XTI      = 3.0                 TLEV     = 1                      TLEVC    = 1
+CJ       = '1.58E-04+DCJ_NTDIO12'
+CJSW     = '1.08E-10+DCJSW_NTDIO12'
+MJ       = 0.39                PB       = 0.445                
+MJSW     = 0.464               PHP      = 0.21                   
+CTA      = 2.66E-03            CTP      = 4.68E-03               TPB      = 1.64E-03             
+TPHP     = 6.42E-04            FC       = 0                      FCS      = 0   
+AREA     = 3.60E-09            PJ       = 2.40E-04
*
***********************************************************************************
*                       3.3V Native N+/PWELL DIODE MODEL                          *
***********************************************************************************
*
.model ntdio33 d
+LEVEL    = 3                        JS       = '1.45E-06+DJS_NTDIO33' JSW      = '1.00E-15+DJSW_NTDIO33'            
+N        = '1.0111+DN_NTDIO33'      RS       = 1.0E-010               IK       = 1.0E+21           
+IKR      = 2.78E+05                 BV       = 18.52                  IBV      = 277.8            
+TRS      = 1.32E-03                 EG       = 1.16                   TREF     = 25.0                
+XTI      = 3.0                      TLEV     = 1                      TLEVC    = 1
+CJ       = '1.37E-04+DCJ_NTDIO33'   MJ       = 0.374                  PB       = 0.578                
+CJSW     = '5.91E-11+DCJSW_NTDIO33' MJSW     = 0.343                  PHP      = 0.305                 
+TPB      = 1.97E-03                 TPHP     = 1.82E-03               FCS      = 0
+CTA      = 2.84E-03                 CTP      = 2.29E-03               FC       = 0
+AREA     = 3.60E-09                 PJ       = 2.40E-04  
*
***********************************************************************************
*                              NWELL/PSUB DIODE MODEL                             *
***********************************************************************************           
*
.model nwdio d
+LEVEL    = 3                   JS       = '6.96E-07+DJS_NWDIO'   JSW      = '2.18E-12+DJSW_NWDIO'
+N        = '1.0202+DN_NWDIO'   RS       = 1.0E-010               IK       = 1.0E+21 
+IKR      = 1.96E+04            BV       = 14.00                  IBV      = 19.6
+TRS      = 2.10E-03            EG       = 1.16                   TREF     = 25.0                
+XTI      = 3.0                 TLEV     = 1                      TLEVC    = 1
+CJ       = '1.29E-04+DCJ_NWDIO'
+CJSW     = '5.49E-10+DCJSW_NWDIO'
+MJ       = 0.375               PB       = 0.553               
+MJSW     = 0.271               PHP      = 0.649                
+TPB      = 0.0021353            TPHP     = 0.0021754               FCS      = 0 
+CTA      = 2.87E-03            CTP      = 1.24E-03               FC       = 0
+AREA     = 5.10E-08            PJ       = 9.4E-04
*
***********************************************************************************
*                      1.2V HVT N+/PWELL DIODE MODEL                              *
***********************************************************************************           
*
.model nhvtdio12 d
+LEVEL    = 3                   JS       = '4.3091E-07+DJS_NHVTDIO12'              
+JSW      = '9.91E-14+DJSW_NHVTDIO12'                                              
+N        = '1.0502+DN_NHVTDIO12'                                                  
+RS       = 1.0E-010            IK       = 1.0E+21                                
+IKR      = 2.78E+05            BV       = 9.0                 IBV      = 277.8    
+TRS      = 1.42E-03            EG       = 1.16                TREF     = 25.0     
+XTI      = 3.0                 TLEV     = 1                   TLEVC    = 1        
+CJ       = '1.5941E-03+DCJ_NHVTDIO12'                                             
+CJSW     = '1.0698E-10+DCJSW_NHVTDIO12'                                           
+MJ       = 0.4941              PB       = 0.8952                                  
+MJSW     = 0.4868              PHP      = 0.855                                   
+CTA      = 7.54E-04            CTP      = 3.83E-04            TPB      = 9.89E-04 
+TPHP     = 1.37E-03            FC       = 0                   FCS      = 0        
+AREA     = 3.6e-9              PJ       = 2.4e-4                                  
*
***********************************************************************************
*                      1.2V HVT P+/NWELL DIODE MODEL                              *
***********************************************************************************           
*
.model phvtdio12 d
+LEVEL    = 3                   JS       = '1.51E-07+DJS_PHVTDIO12'                
+JSW      = '6.12E-14+DJSW_PHVTDIO12'                                              
+N        = '1.0119+DN_PHVTDIO12'                                                  
+RS       = 1.0E-010            IK       = 1.0E+21                               
+IKR      = 2.78E+05            BV       = 8.0                 IBV      = 277.8    
+TRS      = 2.265E-03           EG       = 1.16                TREF     = 25.0     
+XTI      = 3.0                 TLEV     = 1                   TLEVC    = 1        
+CJ       = '1.9299E-03+DCJ_PHVTDIO12'                                             
+CJSW     = '1.2059E-10+DCJSW_PHVTDIO12'                                           
+MJ       = 0.533               PB       = 0.9                                     
+MJSW     = 0.361               PHP      = 0.865                                   
+TPB      = 9.89E-04            TPHP     = 1.37E-03            CTA      = 7.54E-04 
+CTP      = 3.83E-04            FC       = 0                   FCS      = 0        
+AREA     = 3.6e-9              PJ       = 2.4e-4                                  
*
***********************************************************************************
*                      1.2V LVT N+/PWELL DIODE MODEL                              *
***********************************************************************************           
*
.model nlvtdio12 d
+LEVEL    = 3                   JS       = '7.14E-07+DJS_NLVTDIO12'              
+JSW      = '1.20E-13+DJSW_NLVTDIO12'                                              
+N        = '1.0656+DN_NLVTDIO12'                                                  
+RS       = 1.0E-010            IK       = 1.0E+21                                
+IKR      = 2.78E+05            BV       = 11.1                IBV      = 277.8    
+TRS      = 9.50E-04            EG       = 1.16                TREF     = 25.0     
+XTI      = 3.0                 TLEV     = 1                   TLEVC    = 1        
+CJ       = '1.0197E-03+DCJ_NLVTDIO12'                                             
+CJSW     = '1.01E-10+DCJSW_NLVTDIO12'                                             
+MJ       = 0.31                PB       = 0.473                                   
+MJSW     = 0.296               PHP      = 0.35                                    
+CTA      = 9.69E-04            CTP      = 3.00E-04            TPB      = 1.10E-03 
+TPHP     = 6.10E-04            FC       = 0                   FCS      = 0        
+AREA     = 3.6e-9              PJ       = 2.4e-4                                  
*
***********************************************************************************
*                      1.2V LVT P+/NWELL DIODE MODEL                              *
***********************************************************************************
*
.model plvtdio12 d
+LEVEL    = 3                   JS       = '2.2486E-07+DJS_PLVTDIO12'              
+JSW      = '1.78E-13+DJSW_PLVTDIO12'                                              
+N        = '1.02+DN_PLVTDIO12'                                                    
+RS       = 1.0E-010            IK       = 1.0E+21                             
+IKR      = 2.78E+05            BV       = 10.2                IBV      = 277.8    
+TRS      = 3.20E-04            EG       = 1.16                TREF     = 25.0     
+XTI      = 3.0                 TLEV     = 1                   TLEVC    = 1        
+CJ       = '1.1647E-03+DCJ_PLVTDIO12'                                             
+CJSW     = '8.1045E-11+DCJSW_PLVTDIO12'                                           
+MJ       = 0.4133              PB       = 0.7794                                  
+MJSW     = 0.203               PHP      = 0.3395                                  
+TPB      = 0.001359            TPHP     = 4.47E-04            CTA      = 8.93E-04 
+CTP      = 7.18E-04            FC       = 0                   FCS      = 0        
+AREA     = 3.6e-9              PJ       = 2.4e-4                                  
*
***********************************************************************************
*                             RWELL/DNWELL DIODE MODEL                            *
***********************************************************************************
*
.model rwdio33 d
+LEVEL    = 3                   JS       = '7.15E-06 +djs_rwdio33'              
+JSW      = '4.17E-12+djsw_rwdio33'                                              
+N        = '1.08 +dn_rwdio33'                                                  
+RS       = 1.0E-010            IK       = 1.0E+21                             
+IKR      = 1.40E+05            BV       = 14                  IBV      = 139.8    
+TRS      = 6.30E-04            EG       = 1.16                TREF     = 25.0     
+XTI      = 3.0                 TLEV     = 1                   TLEVC    = 1        
+CJ       = '6.19E-04+dcj_rwdio33'                                           
+CJSW     = '1.34E-09+dcjsw_rwdio33'                                           
+MJ       = 0.348               PB       = 0.656                                      
+MJSW     = 0.394               PHP      = 0.671                                    
+CTA      = 0.0012169            CTP      = 1.68E-03            TPB      = 0.001722
+TPHP     = 0.0020909            FC       = 0                   FCS      = 0        
+AREA     = 7.152e-9            PJ       = 6.44e-4                                  
*
***********************************************************************************
*                             DNWELL/PSUB DIODE MODEL                             *
***********************************************************************************
*
.model dnwdio33 d
+LEVEL    = 3                   JS       = '1.60E-06+djs_dnwdio33'              
+JSW      = '5.03E-12+djsw_dnwdio33'                                              
+N        = '1.016+dn_dnwdio33'                                                  
+RS       = 1.0E-010            IK       = 1.0E+21                               
+IKR      = 1.11E+05            BV       = 14                  IBV      = 111.1    
+TRS      = 3.5E-03             EG       = 1.16                TREF     = 25.0     
+XTI      = 3.0                 TLEV     = 1                   TLEVC    = 1        
+CJ       = '6.63E-04+dcj_dnwdio33'                                           
+CJSW     = '1.25E-09+dcjsw_dnwdio33'                                           
+MJ       = 0.375               PB       = 0.688                                      
+MJSW     = 0.38                PHP      = 0.658                                   
+CTA      = 1.35E-03            CTP      = 2.0E-03             TPB      = 0.0016302
+TPHP     = 0.0022176          FC       = 0                   FCS      = 0        
+AREA     = 9.0e-9              PJ       = 6.6e-4                    
*
***********************************************************************************
*                              NWELL/PSUB DIODE MODEL                             *
***********************************************************************************           
*
.model parasitic_nwd d
+LEVEL    = 3                   JS       = '6.96E-07+DJS_NWDIO'   JSW      = '2.18E-12+DJSW_NWDIO'
+N        = '1.0202+DN_NWDIO'   RS       = 1.00e-10            IK       = 1.00e+21    
+IKR      = 1.96E+04            BV       = 14.00                  IBV      = 19.6
+TRS      = 2.10E-03            EG       = 1.16                   TREF     = 25.0                
+XTI      = 3.0                 TLEV     = 1                      TLEVC    = 1
+CJ       = '1.29E-04+DCJ_NWDIO'
+CJSW     = '5.49E-10+DCJSW_NWDIO'
+MJ       = 0.375               PB       = 0.553               
+MJSW     = 0.271               PHP      = 0.649                
+TPB      = 0.0021353            TPHP     = 0.0021754                FCS      = 0 
+CTA      = 2.87E-03            CTP      = 1.24E-03               FC       = 0
+AREA     = 5.10E-08            PJ       = 9.4E-04
*
*
***********************************************************************************
*                             RWELL/DNWELL DIODE MODEL                            *
***********************************************************************************
*
.model parasitic_rwd d
+LEVEL    = 3                   JS       = '7.15E-06 +djs_rwdio33'              
+JSW      = '4.17E-12+djsw_rwdio33'                                              
+N        = '1.08 +dn_rwdio33'                                                  
+RS       = 1.00e-10            IK       = 1.00e+21                
+IKR      = 1.40E+05            BV       = 14                  IBV      = 139.8    
+TRS      = 6.30E-04            EG       = 1.16                TREF     = 25.0     
+XTI      = 3.0                 TLEV     = 1                   TLEVC    = 1        
+CJ       = '6.19E-04+dcj_rwdio33'                                           
+CJSW     = '1.34E-09+dcjsw_rwdio33'                                           
+MJ       = 0.348               PB       = 0.656                                      
+MJSW     = 0.394               PHP      = 0.671                                    
+CTA      = 0.0012169            CTP      = 1.68E-03            TPB      = 0.001722
+TPHP     = 0.0020909            FC       = 0                   FCS      = 0           
+AREA     = 7.152e-9            PJ       = 6.44e-4                                  
*
***********************************************************************************
*                             DNWELL/PSUB DIODE MODEL                             *
***********************************************************************************
*
.model parasitic_dnwd d
+LEVEL    = 3                   JS       = '1.60E-06+djs_dnwdio33'              
+JSW      = '5.03E-12+djsw_dnwdio33'                                              
+N        = '1.016+dn_dnwdio33'                                                  
+RS       = 1.00e-10            IK       = 1.00e+21                            
+IKR      = 1.11E+05            BV       = 14                  IBV      = 111.1    
+TRS      = 3.5E-03             EG       = 1.16                TREF     = 25.0     
+XTI      = 3.0                 TLEV     = 1                   TLEVC    = 1        
+CJ       = '6.63E-04+dcj_dnwdio33'                                           
+CJSW     = '1.25E-09+dcjsw_dnwdio33'                                           
+MJ       = 0.375               PB       = 0.688                                      
+MJSW     = 0.38                PHP      = 0.658                                   
+CTA      = 1.35E-03            CTP      = 2.0E-03             TPB      = 0.0016302
+TPHP     = 0.0022176          FC       = 0                   FCS      = 0        
+AREA     = 9.0e-9              PJ       = 6.6e-4                                  
*