* No part of this file can be released without the consent of SMIC.
* 
************************************************************************************  
*          NWell resistor under STI subcircuit netlist                             *  
************************************************************************************ 
.subckt rnwsti_ckt n2 n1 sub l=lr w=wr 
.param  
+rsh       = '1080+DRSH_RNWSTI'  rtc1     = 0.00273     rtc2 = 1.43E-05   dw = '2.52E-07+ddw_rnwsti'       
+jc1a      = -2.64E-04           jc1b     = 4.43E-07 
+jc2a      = -1.27E-08           jc2b     = 2.38E-13 
+rvc1      = 'jc1a+jc1b/(l*0.9)'       rvc2     = '(jc2a+jc2b/(l*0.9))/(l*0.9)' 
+tcoef(temper)     = '1.0+(temper-25.0)*(rtc1+rtc2*(temper-25.0))' 
+weff      = 'w*0.9-2*dw'  
D1    sub  n2 nwdio area='(w-(2/0.9)*dw)*l/5' pj='(w-(2/0.9)*dw)+2*l/5'
R1    n2   na 'rsh*(l*0.9)/4/weff*tcoef(temper)*max(min(1.0+rvc1*v(n2,n1)+rvc2*v(n2,n1)*v(n2,n1),1.5),0.5)' 
D2    sub  na nwdio area='(w-(2/0.9)*dw)*l/5' pj='2*l/5'
R2    na   nb 'rsh*(l*0.9)/4/weff*tcoef(temper)*max(min(1.0+rvc1*v(n2,n1)+rvc2*v(n2,n1)*v(n2,n1),1.5),0.5)' 
D3    sub  nb nwdio area='(w-(2/0.9)*dw)*l/5' pj='2*l/5'
R3    nb   nc 'rsh*(l*0.9)/4/weff*tcoef(temper)*max(min(1.0+rvc1*v(n2,n1)+rvc2*v(n2,n1)*v(n2,n1),1.5),0.5)' 
D4    sub  nc nwdio area='(w-(2/0.9)*dw)*l/5' pj='2*l/5'
R4    nc   n1 'rsh*(l*0.9)/4/weff*tcoef(temper)*max(min(1.0+rvc1*v(n2,n1)+rvc2*v(n2,n1)*v(n2,n1),1.5),0.5)' 
D5    sub  n1 nwdio area='(w-(2/0.9)*dw)*l/5' pj='(w-(2/0.9)*dw)+2*l/5' 
.ends rnwsti_ckt  
************************************************************************************  
*           NWell resistor under AA subcircuit netlist                             *  
************************************************************************************ 
.subckt rnwaa_ckt n2 n1 sub l=lr w=wr 
.param  
+rsh       = '446+DRSH_RNWAA'  rtc1     = 0.00334   rtc2 = 1.44E-05  dw = '1.26E-07+ddw_rnwaa'       
+jc1a      = -5.18E-03              jc1b     = 4.59E-07 
+jc2a      = -2.49E-11              jc2b     = 2.47E-13  
+rvc1      = 'jc1a+jc1b/(l*0.9)'          rvc2     = '(jc2a+jc2b/(l*0.9))/(l*0.9)' 
+tcoef(temper)     = '1.0+(temper-25.0)*(rtc1+rtc2*(temper-25.0))' 
+weff      = 'w*0.9-2*dw'  
D1    sub  n2 nwdio area='(w-(2/0.9)*dw)*l/5' pj='(w-(2/0.9)*dw)+2*l/5'
R1    n2   na 'rsh*(l*0.9)/4/weff*tcoef(temper)*max(min(1.0+rvc1*v(n2,n1)+rvc2*v(n2,n1)*v(n2,n1),1.5),0.5)' 
D2    sub  na nwdio area='(w-(2/0.9)*dw)*l/5' pj='2*l/5'
R2    na   nb 'rsh*(l*0.9)/4/weff*tcoef(temper)*max(min(1.0+rvc1*v(n2,n1)+rvc2*v(n2,n1)*v(n2,n1),1.5),0.5)' 
D3    sub  nb nwdio area='(w-(2/0.9)*dw)*l/5' pj='2*l/5'
R3    nb   nc 'rsh*(l*0.9)/4/weff*tcoef(temper)*max(min(1.0+rvc1*v(n2,n1)+rvc2*v(n2,n1)*v(n2,n1),1.5),0.5)' 
D4    sub  nc nwdio area='(w-(2/0.9)*dw)*l/5' pj='2*l/5'
R4    nc   n1 'rsh*(l*0.9)/4/weff*tcoef(temper)*max(min(1.0+rvc1*v(n2,n1)+rvc2*v(n2,n1)*v(n2,n1),1.5),0.5)' 
D5    sub  n1 nwdio area='(w-(2/0.9)*dw)*l/5' pj='(w-(2/0.9)*dw)+2*l/5'  
.ends rnwaa_ckt  
************************************************************************************  
*        Silicide N+ diffusion resistor subcircuit netlist                         *  
************************************************************************************ 
.subckt rndif_ckt n2 n1 sub l=lr w=wr 
.param  
+rsh       = '7.15+DRSH_RNDIF'   rtc1     = 0.00323   rtc2 = 2.784e-07   dw = '-2.67E-08+ddw_rndif'       
+jc1a      = 5.68E-05              jc1b     = -4.79E-10 
+jc2a      = 4.52E-08              jc2b     = 4.28e-12 
+rvc1      = 'jc1a+jc1b/(l*0.9)'         rvc2     = '(jc2a+jc2b/(l*0.9))/(l*0.9)' 
+tcoef(temper)     = '1.0+(temper-25.0)*(rtc1+rtc2*(temper-25.0))' 
+weff      = 'w*0.9-2*dw'  
D1    sub  n2 ndio12 area='(w-(2/0.9)*dw)*l/5' pj='(w-(2/0.9)*dw)+2*l/5'
R1    n2   na 'rsh*(l*0.9)/4/weff*tcoef(temper)*max(min(1.0+rvc1*v(n2,n1)+rvc2*v(n2,n1)*v(n2,n1),1.5),0.5)' 
D2    sub  na ndio12 area='(w-(2/0.9)*dw)*l/5' pj='2*l/5'
R2    na   nb 'rsh*(l*0.9)/4/weff*tcoef(temper)*max(min(1.0+rvc1*v(n2,n1)+rvc2*v(n2,n1)*v(n2,n1),1.5),0.5)' 
D3    sub  nb ndio12 area='(w-(2/0.9)*dw)*l/5' pj='2*l/5'
R3    nb   nc 'rsh*(l*0.9)/4/weff*tcoef(temper)*max(min(1.0+rvc1*v(n2,n1)+rvc2*v(n2,n1)*v(n2,n1),1.5),0.5)' 
D4    sub  nc ndio12 area='(w-(2/0.9)*dw)*l/5' pj='2*l/5'
R4    nc   n1 'rsh*(l*0.9)/4/weff*tcoef(temper)*max(min(1.0+rvc1*v(n2,n1)+rvc2*v(n2,n1)*v(n2,n1),1.5),0.5)' 
D5    sub  n1 ndio12 area='(w-(2/0.9)*dw)*l/5' pj='(w-(2/0.9)*dw)+2*l/5'  
.ends rndif_ckt  
************************************************************************************  
*      Non-silicide N+ diffusion resistor subcircuit netlist                       *  
************************************************************************************ 
.subckt rndifsab_ckt n2 n1 sub l=lr w=wr mismod_res=0
.param  
*****mismatch parameters*****
+rshmis = arsh*geo_fac*sigma_mis_r*mismod_res
+geo_fac = '1/sqrt(weff*leff)'
+arsh = 3.06E-07

+rsh       = '69.20+DRSH_RNDIFSAB+rshmis'    rtc1     = 1.35E-03     rtc2  = 8.02E-07    
+dw        = '1.00E-08+DDW_RNDIFSAB'  dl       = -2.64e-7
+jc1a      = 2.41E-05                jc1b     = 4.26E-09 
+jc2a      = 1.73E-08                jc2b     = 1.62E-14
+rvc1      = 'jc1a+jc1b/(l*0.9)'           rvc2     = '(jc2a+jc2b/(l*0.9))/(l*0.9)' 
+weff      = 'w*0.9-2*dw'                leff     = 'l*0.9-2*dl'
+tcoef(temper)     = '1.0+(temper-25.0)*(rtc1+rtc2*(temper-25.0))' 

D1    sub  n2 ndio12 area='(w-(2/0.9)*dw)*(l-(2/0.9)*dl)/5' pj='(w-(2/0.9)*dw)+2*(l-(2/0.9)*dl)/5'  
R1    n2   nb 'rsh*leff/4/weff*tcoef(temper)*max(min(1.0+rvc1*v(n2,n1)+rvc2*v(n2,n1)*v(n2,n1),1.5),0.5)'
D2    sub  nb ndio12 area='(w-(2/0.9)*dw)*(l-(2/0.9)*dl)/5' pj='2*(l-(2/0.9)*dl)/5'
R2    nb   nc 'rsh*leff/4/weff*tcoef(temper)*max(min(1.0+rvc1*v(n2,n1)+rvc2*v(n2,n1)*v(n2,n1),1.5),0.5)'
D3    sub  nc ndio12 area='(w-(2/0.9)*dw)*(l-(2/0.9)*dl)/5' pj='2*(l-(2/0.9)*dl)/5'
R3    nc   nd 'rsh*leff/4/weff*tcoef(temper)*max(min(1.0+rvc1*v(n2,n1)+rvc2*v(n2,n1)*v(n2,n1),1.5),0.5)'
D4    sub  nd ndio12 area='(w-(2/0.9)*dw)*(l-(2/0.9)*dl)/5' pj='2*(l-(2/0.9)*dl)/5'
R4    nd   n1 'rsh*leff/4/weff*tcoef(temper)*max(min(1.0+rvc1*v(n2,n1)+rvc2*v(n2,n1)*v(n2,n1),1.5),0.5)'
D5    sub  n1 ndio12 area='(w-(2/0.9)*dw)*(l-(2/0.9)*dl)/5' pj='(w-(2/0.9)*dw)+2*(l-(2/0.9)*dl)/5' 
.ends rndifsab_ckt
   
************************************************************************************  
*        Silicide P+ diffusion resistor subcircuit netlist                         *  
************************************************************************************ 
.subckt rpdif_ckt n2 n1 sub l=lr w=wr 
.param  
+rsh       = '8.00+DRSH_RPDIF'   rtc1     = 0.00309    rtc2 = 3.6E-07   dw = '-6.62E-09+ddw_rpdif'       
+jc1a      = 5.56E-05              jc1b     = -2.86E-09 
+jc2a      = 5.08E-08              jc2b     = 1.69E-12 
+rvc1      = 'jc1a+jc1b/(l*0.9)'         rvc2     = '(jc2a+jc2b/(l*0.9))/(l*0.9)' 
+tcoef(temper)     = '1.0+(temper-25.0)*(rtc1+rtc2*(temper-25.0))'  
+weff      = 'w*0.9-2*dw'   
D1    n2   sub pdio12 area='(w-(2/0.9)*dw)*l/5' pj='(w-(2/0.9)*dw)+2*l/5'
R1    n2   na 'rsh*(l*0.9)/4/weff*tcoef(temper)*max(min(1.0+rvc1*v(n2,n1)+rvc2*v(n2,n1)*v(n2,n1),1.5),0.5)' 
D2    na   sub pdio12 area='(w-(2/0.9)*dw)*l/5' pj='2*l/5'
R2    na   nb 'rsh*(l*0.9)/4/weff*tcoef(temper)*max(min(1.0+rvc1*v(n2,n1)+rvc2*v(n2,n1)*v(n2,n1),1.5),0.5)' 
D3    nb   sub pdio12 area='(w-(2/0.9)*dw)*l/5' pj='2*l/5'
R3    nb   nc 'rsh*(l*0.9)/4/weff*tcoef(temper)*max(min(1.0+rvc1*v(n2,n1)+rvc2*v(n2,n1)*v(n2,n1),1.5),0.5)' 
D4    nc   sub pdio12 area='(w-(2/0.9)*dw)*l/5' pj='2*l/5'
R4    nc   n1 'rsh*(l*0.9)/4/weff*tcoef(temper)*max(min(1.0+rvc1*v(n2,n1)+rvc2*v(n2,n1)*v(n2,n1),1.5),0.5)' 
D5    n1   sub pdio12 area='(w-(2/0.9)*dw)*l/5' pj='(w-(2/0.9)*dw)+2*l/5'     
.ends rpdif_ckt  
************************************************************************************  
*      Non-silicide P+ diffusion resistor subcircuit netlist                       *  
************************************************************************************ 
.subckt rpdifsab_ckt n2 n1 sub l=lr w=wr mismod_res=0  
.param  
*****mismatch parameters*****
+rshmis = arsh*geo_fac*sigma_mis_r*mismod_res
+geo_fac = '1/sqrt(weff*leff)'
+arsh = 7.50E-07

+rsh       = '139.50+DRSH_RPDIFSAB+rshmis'    rtc1     = 1.34E-03     rtc2  = 1.00E-06    
+dw        = '1.00E-08+DDW_RPDIFSAB'  dl       = -2.74e-7
+jc1a      = -1.72E-05               jc1b     = -9.62E-10 
+jc2a      = 1.37E-08                jc2b     = -9.34E-14
+rvc1      = 'jc1a+jc1b/(l*0.9)'           rvc2     = '(jc2a+jc2b/(l*0.9))/(l*0.9)' 
+weff      = 'w*0.9-2*dw'                leff     = 'l*0.9-2*dl'
+tcoef(temper)     = '1.0+(temper-25.0)*(rtc1+rtc2*(temper-25.0))' 

D1    n2   sub pdio12 area='(w-(2/0.9)*dw)*(l-(2/0.9)*dl)/5' pj='(w-(2/0.9)*dw)+2*(l-(2/0.9)*dl)/5'
R1    n2   na 'rsh*leff/4/weff*tcoef(temper)*max(min(1.0+rvc1*v(n2,n1)+rvc2*v(n2,n1)*v(n2,n1),1.5),0.5)' 
D2    na   sub pdio12 area='(w-(2/0.9)*dw)*(l-(2/0.9)*dl)/5' pj='2*(l-(2/0.9)*dl)/5'
R2    na   nb 'rsh*leff/4/weff*tcoef(temper)*max(min(1.0+rvc1*v(n2,n1)+rvc2*v(n2,n1)*v(n2,n1),1.5),0.5)' 
D3    nb   sub pdio12 area='(w-(2/0.9)*dw)*(l-(2/0.9)*dl)/5' pj='2*(l-(2/0.9)*dl)/5'
R3    nb   nc 'rsh*leff/4/weff*tcoef(temper)*max(min(1.0+rvc1*v(n2,n1)+rvc2*v(n2,n1)*v(n2,n1),1.5),0.5)' 
D4    nc   sub pdio12 area='(w-(2/0.9)*dw)*(l-(2/0.9)*dl)/5' pj='2*(l-(2/0.9)*dl)/5'
R4    nc   n1 'rsh*leff/4/weff*tcoef(temper)*max(min(1.0+rvc1*v(n2,n1)+rvc2*v(n2,n1)*v(n2,n1),1.5),0.5)' 
D5    n1   sub pdio12 area='(w-(2/0.9)*dw)*(l-(2/0.9)*dl)/5' pj='(w-(2/0.9)*dw)+2*(l-(2/0.9)*dl)/5'

.ends rpdifsab_ckt  
************************************************************************************  
*          Silicide N+ poly resistor subcircuit netlist                            *  
************************************************************************************ 
.subckt rnpo_ckt n2 n1 l=lr w=wr 
.param  
+rsh       = '7.5+DRSH_RNPO'  rtc1     = 0.0031   rtc2 = 1.48E-07    dw   = '-3.05E-08-2.7E-9+ddw_rnpo'    
+jc1a      = -5.37E-05           jc1b     = 3.22E-07 
+jc2a      = 8.12E-08            jc2b     = 4.06E-11 
+rvc1      = 'jc1a+jc1b/(l*0.9)'       rvc2     = '(jc2a+jc2b/(l*0.9))/(l*0.9)'          
+tcoef(temper)     = '1.0+(temper-25.0)*(rtc1+rtc2*(temper-25.0))' 
+weff      = 'w*0.9-2*dw'    
R1 n2 n1 'rsh*(l*0.9)/weff*tcoef(temper)*max(min(1.0+rvc1*abs(v(n2,n1))+rvc2*v(n2,n1)*v(n2,n1),1.5),0.5)'  
.ends rnpo_ckt


************************************************************************************  
*          Silicide N+ poly resistor subcircuit netlist (three terminal)           *  
************************************************************************************ 
.subckt rnpo_3t_ckt n2 n1 sub l=lr w=wr 
.param  
+rsh       = '7.5+DRSH_RNPO_3T'  rtc1     = 0.0031   rtc2 = 1.48E-07    dw   = '-3.05E-08-2.7E-9+ddw_rnpo_3t'    
+jc1a      = -5.37E-05           jc1b     = 3.22E-07 
+jc2a      = 8.12E-08            jc2b     = 4.06E-11 
+rvc1      = 'jc1a+jc1b/(l*0.9)'       rvc2     = '(jc2a+jc2b/(l*0.9))/(l*0.9)'          
+tcoef(temper)     = '1.0+(temper-25.0)*(rtc1+rtc2*(temper-25.0))' 
+dl        = '-3.05E-08+ddw_rnpo_3t'   weff = 'w*0.9-2*dw'    leff = 'l*0.9-2*dl' 
+cox       = '9.31E-05+dcox_rnpo_3t'   capsw    = '8.75E-11+dcapsw_rnpo_3t'
C1 n2 sub 'cox*weff*leff/2+capsw*weff+capsw*leff' 
R1 n2 n1 'rsh*(l*0.9)/weff*tcoef(temper)*max(min(1.0+rvc1*abs(v(n2,n1))+rvc2*v(n2,n1)*v(n2,n1),1.5),0.5)'
C2 n1 sub 'cox*weff*leff/2+capsw*weff+capsw*leff'   
.ends rnpo_3t_ckt 
   
************************************************************************************  
*        Non-silicide N+ poly resistor subcircuit netlist                          *  
************************************************************************************  
.subckt rnposab_ckt n2 n1 l=lr w=wr mismod_res=0 
.param  
*****mismatch parameters*****
+rshmis = arsh*geo_fac*sigma_mis_r*mismod_res
+geo_fac = '1/sqrt(weff*leff)'
+arsh = 1.0E-05

+rsh       = '275.50+DRSH_RNPOSAB+rshmis'   rtc1     = -9.93E-04     rtc2  = 1.07E-06    
+dw        = '1.68E-08-2.7E-9+DDW_RNPOSAB'  dl       = -1.33e-7
+jc1a      = 3.04E-05                jc1b     = -3.29E-09 
+jc2a      = -1.18E-08               jc2b     = -2.99E-13
+rvc1      = 'jc1a+jc1b/(l*0.9)'           rvc2     = '(jc2a+jc2b/(l*0.9))/(l*0.9)' 
+weff      = 'w*0.9-2*dw'                leff     = 'l*0.9-2*dl'
+tcoef(temper)     = '1.0+(temper-25.0)*(rtc1+rtc2*(temper-25.0))' 

R1    n2 n1 'rsh*leff/weff*tcoef(temper)*max(min(1.0+rvc1*abs(v(n2,n1))+rvc2*v(n2,n1)*v(n2,n1),1.5),0.5)'

.ends rnposab_ckt

************************************************************************************  
*        Non-silicide N+ poly resistor subcircuit netlist (three terminal)         *  
************************************************************************************  
.subckt rnposab_3t_ckt n2 n1 sub l=lr w=wr mismod_res=0
.param  
*****mismatch parameters*****
+rshmis = arsh*geo_fac*sigma_mis_r*mismod_res
+geo_fac = '1/sqrt(weff*leff)'
+arsh = 1.0E-05

+rsh       = '275.50+DRSH_RNPOSAB_3T+rshmis'   rtc1     = -9.93E-04     rtc2  = 1.07E-06    
+dw        = '1.68E-08-2.7E-9+DDW_RNPOSAB_3T'  dl       = -1.33e-7
+jc1a      = 3.04E-05                jc1b     = -3.29E-09 
+jc2a      = -1.18E-08               jc2b     = -2.99E-13
+rvc1      = 'jc1a+jc1b/(l*0.9)'           rvc2     = '(jc2a+jc2b/(l*0.9))/(l*0.9)' 
+weff      = 'w*0.9-2*dw'                leff     = 'l*0.9-2*dl'
+tcoef(temper)     = '1.0+(temper-25.0)*(rtc1+rtc2*(temper-25.0))' 
+cox       = '9.31E-05+dcox_rnposab_3t'   capsw    = '8.75E-11+dcapsw_rnposab_3t'
C1    n2 sub 'cox*weff*leff/2+capsw*weff+capsw*leff' 
R1    n2 n1 'rsh*leff/weff*tcoef(temper)*max(min(1.0+rvc1*abs(v(n2,n1))+rvc2*v(n2,n1)*v(n2,n1),1.5),0.5)'
C2    n1 sub 'cox*weff*leff/2+capsw*weff+capsw*leff'
.ends rnposab_3t_ckt   
   
************************************************************************************  
*          Silicide P+ poly resistor subcircuit netlist                            *  
************************************************************************************ 
.subckt rppo_ckt n2 n1 l=lr w=wr 
.param  
+rsh       = '7.85+DRSH_RPPO'   rtc1     = 0.00299     rtc2 = 3.24E-07   dw   = '-1.66E-08-2.7E-9+ddw_rppo'    
+jc1a      = -1.53E-04            jc1b     = 1.56E-08 
+jc2a      = 5.08E-07             jc2b     = 1.15E-13 
+rvc1      = 'jc1a+jc1b/(l*0.9)'        rvc2     = '(jc2a+jc2b/(l*0.9))/(l*0.9)'          
+tcoef(temper)     = '1.0+(temper-25.0)*(rtc1+rtc2*(temper-25.0))'
+weff      = 'w*0.9-2*dw'   
R1 n2 n1 'rsh*(l*0.9)/weff*tcoef(temper)*max(min(1.0+rvc1*abs(v(n2,n1))+rvc2*v(n2,n1)*v(n2,n1),1.5),0.5)'  
.ends rppo_ckt

************************************************************************************  
*          Silicide P+ poly resistor subcircuit netlist (three terminal)           *  
************************************************************************************ 
.subckt rppo_3t_ckt n2 n1 sub l=lr w=wr 
.param  
+rsh       = '7.85+DRSH_RPPO_3T'   rtc1     = 0.00299     rtc2 = 3.24E-07   dw   = '-1.66E-08-2.7E-9+ddw_rppo_3t'    
+jc1a      = -1.53E-04            jc1b     = 1.56E-08 
+jc2a      = 5.08E-07             jc2b     = 1.15E-13 
+rvc1      = 'jc1a+jc1b/(l*0.9)'        rvc2     = '(jc2a+jc2b/(l*0.9))/(l*0.9)'          
+tcoef(temper)     = '1.0+(temper-25.0)*(rtc1+rtc2*(temper-25.0))'
+dl        = '-1.66E-08+ddw_rppo_3t'  weff = 'w*0.9-2*dw'    leff = 'l*0.9-2*dl' 
+cox       = '9.31E-05+dcox_rppo_3t'   capsw    = '8.75E-11+dcapsw_rppo_3t'
C1 n2 sub 'cox*weff*leff/2+capsw*weff+capsw*leff' 
R1 n2 n1 'rsh*(l*0.9)/weff*tcoef(temper)*max(min(1.0+rvc1*abs(v(n2,n1))+rvc2*v(n2,n1)*v(n2,n1),1.5),0.5)'
C2 n1 sub 'cox*weff*leff/2+capsw*weff+capsw*leff'  
.ends rppo_3t_ckt  

************************************************************************************  
*        Non-silicide P+ poly resistor subcircuit netlist                          *  
************************************************************************************ 
.subckt rpposab_ckt n2 n1 l=lr w=wr mismod_res=0  
.param  
*****mismatch parameters*****
+rshmis = arsh*geo_fac*sigma_mis_r*mismod_res
+geo_fac = '1/sqrt(weff*leff)'
+arsh = 3.4E-06

+rsh       = '321.5+DRSH_RPPOSAB+rshmis'    rtc1     = -5.75E-05     rtc2  = 6.10E-07    
+dw        = '1.28E-08-2.7E-9+DDW_RPPOSAB'  dl       = -2.68e-7
+jc1a      = 2.16E-05                jc1b     = -1.77E-9 
+jc2a      = -7.61E-10               jc2b     = -1.79E-14
+rvc1      = 'jc1a+jc1b/(l*0.9)'           rvc2     = '(jc2a+jc2b/(l*0.9))/(l*0.9)' 
+weff      = 'w*0.9-2*dw'                leff     = 'l*0.9-2*dl'
+tcoef(temper)     = '1.0+(temper-25.0)*(rtc1+rtc2*(temper-25.0))' 

R1    n2 n1 'rsh*leff/weff*tcoef(temper)*max(min(1.0+rvc1*abs(v(n2,n1))+rvc2*v(n2,n1)*v(n2,n1),1.5),0.5)'

.ends rpposab_ckt

************************************************************************************  
*        Non-silicide P+ poly resistor subcircuit netlist (three terminal)         *  
************************************************************************************ 
.subckt rpposab_3t_ckt n2 n1 sub l=lr w=wr mismod_res=0  
.param  
*****mismatch parameters*****
+rshmis = arsh*geo_fac*sigma_mis_r*mismod_res
+geo_fac = '1/sqrt(weff*leff)'
+arsh = 3.4E-06

+rsh       = '321.5+DRSH_RPPOSAB_3T+rshmis'    rtc1     = -5.75E-05     rtc2  = 6.10E-07    
+dw        = '1.28E-08-2.7E-9+DDW_RPPOSAB_3T'  dl       = -2.68e-7
+jc1a      = 2.16E-05                jc1b     = -1.77E-9 
+jc2a      = -7.61E-10               jc2b     = -1.79E-14
+rvc1      = 'jc1a+jc1b/(l*0.9)'           rvc2     = '(jc2a+jc2b/(l*0.9))/(l*0.9)' 
+weff      = 'w*0.9-2*dw'                leff     = 'l*0.9-2*dl'
+tcoef(temper)     = '1.0+(temper-25.0)*(rtc1+rtc2*(temper-25.0))' 
+cox       = '9.31E-05+dcox_rpposab_3t'   capsw    = '8.75E-11+dcapsw_rpposab_3t'
C1    n2 sub 'cox*weff*leff/2+capsw*weff+capsw*leff' 
R1    n2 n1 'rsh*leff/weff*tcoef(temper)*max(min(1.0+rvc1*abs(v(n2,n1))+rvc2*v(n2,n1)*v(n2,n1),1.5),0.5)'
C2    n1 sub 'cox*weff*leff/2+capsw*weff+capsw*leff'  
.ends rpposab_3t_ckt 

****************************************************************** 
*                Non-Silicide HR Poly Resistance                 * 
******************************************************************
.subckt rhrpo_ckt n2 n1 l=lr w=wr mismod_res=0  
.param
*****mismatch parameters*****
+rshmis = arsh*geo_fac*sigma_mis_r*mismod_res
+geo_fac = '1/sqrt(weff*l*0.9)'
+arsh = 1.55E-05

+rsh = '963+DRSH_RHRPO+rshmis'             rtc1 = -6.77E-04          rtc2 = 2.08E-06       dw = '2.27E-08-2.7E-9+ddw_rhrpo'
+rint0 = 2.08E-4                    rint1 = 0
+rinttc1 = -6.46E-04                rinttc2 = -1.12E-06
+jc1a = 8.89E-05                    jc1b = -4.49E-09
+jc2a = -2.53E-09                   jc2b = -6.64E-14
+rintjc1a = 0.365                   rintjc1b = 1.45E+3
+rintjc2a = -13.1689                rintjc2b = -1.52E+7
+tcoef(temper) = '1.0+(temper-25.0)*(rtc1+rtc2*(temper-25.0))'
+rvc1 = 'jc1a + jc1b / (l*0.9)'           rvc2 = '(jc2a + jc2b / (l*0.9)) / (l*0.9)'
+weff = 'w*0.9-2*dw'
+rintvc1 = 'rintjc1a + rintjc1b * weff'  rintvc2 = 'rintjc2a + rintjc2b * weff'
+rinttcoef(temper) = '1.0+(temper-25.0)*(rinttc1+rinttc2*(temper-25.0))'
Rinta n2 na '(rint0/weff+rint1/(weff*weff))*rinttcoef(temper)*max(min(1.0+rintvc1*abs(v(n2,na))+rintvc2*v(n2,na)*v(n2,na),1.5),0.5)'
R1 na nb 'rsh*(l*0.9)/weff*tcoef(temper)*max(min(1.0+rvc1*abs(v(na,nb))+rvc2*v(na,nb)*v(na,nb),1.5),0.5)'
Rintb nb n1 '(rint0/weff+rint1/(weff*weff))*rinttcoef(temper)*max(min(1.0+rintvc1*abs(v(nb,n1))+rintvc2*v(nb,n1)*v(nb,n1),1.5),0.5)'
.ends rhrpo_ckt
****************************************************************** 
*        Non-Silicide HR Poly Resistance (three terminal)        * 
******************************************************************
.subckt rhrpo_3t_ckt n2 n1 sub l=lr w=wr mismod_res=0  
.param
*****mismatch parameters*****
+rshmis = arsh*geo_fac*sigma_mis_r*mismod_res
+geo_fac = '1/sqrt(weff*l*0.9)'
+arsh = 1.55E-05

+rsh = '963+DRSH_RHRPO_3T+rshmis'          rtc1 = -6.77E-04          rtc2 = 2.08E-06       dw = '2.27E-08-2.7E-9+ddw_rhrpo_3t'
+rint0 = 2.08E-4                    rint1 = 0
+rinttc1 = -6.46E-04                rinttc2 = -1.12E-06
+jc1a = 8.89E-05                    jc1b = -4.49E-09
+jc2a = -2.53E-09                   jc2b = -6.64E-14
+rintjc1a = 0.365                   rintjc1b = 1.45E+3
+rintjc2a = -13.1689                rintjc2b = -1.52E+7
+tcoef(temper) = '1.0+(temper-25.0)*(rtc1+rtc2*(temper-25.0))'
+rvc1 = 'jc1a + jc1b / (l*0.9)'           rvc2 = '(jc2a + jc2b / (l*0.9)) /(l*0.9)'
+dl = '2.27E-08+ddw_rhrpo_3t'       weff = 'w*0.9-2*dw'          leff = 'l*0.9-2*dl'
+rintvc1 = 'rintjc1a + rintjc1b * weff'  rintvc2 = 'rintjc2a + rintjc2b * weff'
+rinttcoef(temper) = '1.0+(temper-25.0)*(rinttc1+rinttc2*(temper-25.0))'
+cox       = '9.31E-05+dcox_rhrpo_3t'   capsw    = '8.75E-11+dcapsw_rhrpo_3t'
C1    n2 sub 'cox*weff*leff/2+capsw*weff+capsw*leff'
Rinta n2 na '(rint0/weff+rint1/(weff*weff))*rinttcoef(temper)*max(min(1.0+rintvc1*abs(v(n2,na))+rintvc2*v(n2,na)*v(n2,na),1.5),0.5)'
R1 na nb 'rsh*(l*0.9)/weff*tcoef(temper)*max(min(1.0+rvc1*abs(v(na,nb))+rvc2*v(na,nb)*v(na,nb),1.5),0.5)'
Rintb nb n1 '(rint0/weff+rint1/(weff*weff))*rinttcoef(temper)*max(min(1.0+rintvc1*abs(v(nb,n1))+rintvc2*v(nb,n1)*v(nb,n1),1.5),0.5)'
C2    n1 sub 'cox*weff*leff/2+capsw*weff+capsw*leff'
.ends rhrpo_3t_ckt

*****************************************  
*          Metal 1 resistance           *  
*****************************************
.subckt rm1_ckt n2 n1 sub l=lr w=wr   
.param  
+rsh       = '0.11+drsh_rm1'       rtc1 = 3.62E-03   rtc2 = -6.98E-07   dw = '-1.02E-08+ddw_rm1'
+jc1a      = -8.08E-05               jc1b = 2.04E-07
+jc2a      = 4.38E-06                jc2b = -5.78E-10
+rvc1      = 'jc1a+jc1b/(l*0.9)'         rvc2   = '(jc2a+jc2b/(l*0.9))/(l*0.9)'          
+tcoef(temper)     = '1.0+(temper-25.0)*(rtc1+rtc2*(temper-25.0))' 
+dl        = '-1.02E-08+ddw_rm1'   weff = 'w*0.9-2*dw'    leff = 'l*0.9-2*dl' 
+cox       = '4.08E-05+dcox_rm1'  capsw    = '1.17E-10+dcapsw_rm1'
C1 n2 sub 'cox*weff*leff/2+capsw*weff+capsw*leff'    
R1 n2 n1 'rsh*(l*0.9)/weff*tcoef(temper)*max(min(1.0+rvc1*abs(v(n2,n1))+rvc2*v(n2,n1)*v(n2,n1),1.5),0.5)'
C2 n1 sub 'cox*weff*leff/2+capsw*weff+capsw*leff'  
.ends rm1_ckt

*****************************************  
*          Metal 2 resistance           *  
*****************************************
.subckt rm2_ckt n2 n1 sub l=lr w=wr   
.param  
+rsh       = '0.065+drsh_rm2'       rtc1 = 3.70E-03     rtc2 = 7.77E-07   dw = '-1.06E-08+ddw_rm2'
+jc1a      = -1.02E-04               jc1b = 2.78E-07
+jc2a      = 4.46E-06                jc2b = 2.70E-08
+rvc1      = 'jc1a+jc1b/(l*0.9)'           rvc2   = '(jc2a+jc2b/(l*0.9))/(l*0.9)'          
+tcoef(temper)     = '1.0+(temper-25.0)*(rtc1+rtc2*(temper-25.0))' 
+dl        = '-1.06E-08+ddw_rm2'     weff = 'w*0.9-2*dw'     leff = 'l*0.9-2*dl' 
+cox       = '2.33E-05+dcox_rm2'    capsw    = '1.16E-10+dcapsw_rm2'
C1 n2 sub 'cox*weff*leff/2+capsw*weff+capsw*leff'    
R1 n2 n1 'rsh*(l*0.9)/weff*tcoef(temper)*max(min(1.0+rvc1*abs(v(n2,n1))+rvc2*v(n2,n1)*v(n2,n1),1.5),0.5)'
C2 n1 sub 'cox*weff*leff/2+capsw*weff+capsw*leff'  
.ends rm2_ckt

*****************************************  
*          Metal 3 resistance           *  
*****************************************
.subckt rm3_ckt n2 n1 sub l=lr w=wr   
.param  
+rsh       = '0.065+drsh_rm3'       rtc1 = 3.70E-03     rtc2 = 7.77E-07   dw = '-1.06E-08+ddw_rm3'
+jc1a      = -1.02E-04               jc1b = 2.78E-07
+jc2a      = 4.46E-06                jc2b = 2.70E-08
+rvc1      = 'jc1a+jc1b/(l*0.9)'           rvc2   = '(jc2a+jc2b/(l*0.9))/(l*0.9)'          
+tcoef(temper)     = '1.0+(temper-25.0)*(rtc1+rtc2*(temper-25.0))' 
+dl        = '-1.06E-08+ddw_rm3'     weff = 'w*0.9-2*dw'     leff = 'l*0.9-2*dl' 
+cox       = '1.55E-05+dcox_rm3'     capsw    = '1.16E-10+dcapsw_rm3'
C1 n2 sub 'cox*weff*leff/2+capsw*weff+capsw*leff'    
R1 n2 n1 'rsh*(l*0.9)/weff*tcoef(temper)*max(min(1.0+rvc1*abs(v(n2,n1))+rvc2*v(n2,n1)*v(n2,n1),1.5),0.5)'
C2 n1 sub 'cox*weff*leff/2+capsw*weff+capsw*leff'  
.ends rm3_ckt

*****************************************  
*          Metal 4 resistance           *  
*****************************************
.subckt rm4_ckt n2 n1 sub l=lr w=wr   
.param  
+rsh       = '0.065+drsh_rm4'       rtc1 = 3.70E-03     rtc2 = 7.77E-07   dw = '-1.06E-08+ddw_rm4'
+jc1a      = -1.02E-04               jc1b = 2.78E-07
+jc2a      = 4.46E-06                jc2b = 2.70E-08
+rvc1      = 'jc1a+jc1b/(l*0.9)'           rvc2   = '(jc2a+jc2b/(l*0.9))/(l*0.9)'          
+tcoef(temper)     = '1.0+(temper-25.0)*(rtc1+rtc2*(temper-25.0))' 
+dl        = '-1.06E-08+ddw_rm4'     weff = 'w*0.9-2*dw'     leff = 'l*0.9-2*dl' 
+cox       = '1.16E-05+dcox_rm4'     capsw    = '1.16E-10+dcapsw_rm4'
C1 n2 sub 'cox*weff*leff/2+capsw*weff+capsw*leff'    
R1 n2 n1 'rsh*(l*0.9)/weff*tcoef(temper)*max(min(1.0+rvc1*abs(v(n2,n1))+rvc2*v(n2,n1)*v(n2,n1),1.5),0.5)'
C2 n1 sub 'cox*weff*leff/2+capsw*weff+capsw*leff'  
.ends rm4_ckt

*****************************************  
*          Metal 5 resistance           *  
*****************************************
.subckt rm5_ckt n2 n1 sub l=lr w=wr   
.param  
+rsh       = '0.065+drsh_rm5'       rtc1 = 3.70E-03     rtc2 = 7.77E-07   dw = '-1.06E-08+ddw_rm5'
+jc1a      = -1.02E-04               jc1b = 2.78E-07
+jc2a      = 4.46E-06                jc2b = 2.70E-08
+rvc1      = 'jc1a+jc1b/(l*0.9)'           rvc2   = '(jc2a+jc2b/(l*0.9))/(l*0.9)'          
+tcoef(temper)     = '1.0+(temper-25.0)*(rtc1+rtc2*(temper-25.0))' 
+dl        = '-1.06E-08+ddw_rm5'     weff = 'w*0.9-2*dw'     leff = 'l*0.9-2*dl' 
+cox       = '9.28E-06+dcox_rm5'     capsw    = '1.16E-10+dcapsw_rm5'
C1 n2 sub 'cox*weff*leff/2+capsw*weff+capsw*leff'    
R1 n2 n1 'rsh*(l*0.9)/weff*tcoef(temper)*max(min(1.0+rvc1*abs(v(n2,n1))+rvc2*v(n2,n1)*v(n2,n1),1.5),0.5)'
C2 n1 sub 'cox*weff*leff/2+capsw*weff+capsw*leff'  
.ends rm5_ckt

*****************************************  
*          Metal 6 resistance           *  
*****************************************
.subckt rm6_ckt n2 n1 sub l=lr w=wr   
.param  
+rsh       = '0.065+drsh_rm6'       rtc1 = 3.70E-03     rtc2 = 7.77E-07   dw = '-1.06E-08+ddw_rm6'
+jc1a      = -1.02E-04               jc1b = 2.78E-07
+jc2a      = 4.46E-06                jc2b = 2.70E-08
+rvc1      = 'jc1a+jc1b/(l*0.9)'           rvc2   = '(jc2a+jc2b/(l*0.9))/(l*0.9)'          
+tcoef(temper)     = '1.0+(temper-25.0)*(rtc1+rtc2*(temper-25.0))' 
+dl        = '-1.06E-08+ddw_rm6'     weff = 'w*0.9-2*dw'     leff = 'l*0.9-2*dl' 
+cox       = '7.72E-06+dcox_rm6'      capsw    = '1.15E-10+dcapsw_rm6'
C1 n2 sub 'cox*weff*leff/2+capsw*weff+capsw*leff'    
R1 n2 n1 'rsh*(l*0.9)/weff*tcoef(temper)*max(min(1.0+rvc1*abs(v(n2,n1))+rvc2*v(n2,n1)*v(n2,n1),1.5),0.5)'
C2 n1 sub 'cox*weff*leff/2+capsw*weff+capsw*leff'  
.ends rm6_ckt

*****************************************  
*          Metal 7 resistance           *  
*****************************************
.subckt rm7_ckt n2 n1 sub l=lr w=wr   
.param  
+rsh       = '0.065+drsh_rm7'       rtc1 = 3.70E-03     rtc2 = 7.77E-07   dw = '-1.06E-08+ddw_rm7'
+jc1a      = -1.02E-04               jc1b = 2.78E-07
+jc2a      = 4.46E-06                jc2b = 2.70E-08
+rvc1      = 'jc1a+jc1b/(l*0.9)'           rvc2   = '(jc2a+jc2b/(l*0.9))/(l*0.9)'          
+tcoef(temper)     = '1.0+(temper-25.0)*(rtc1+rtc2*(temper-25.0))' 
+dl        = '-1.06E-08+ddw_rm7'     weff = 'w*0.9-2*dw'     leff = 'l*0.9-2*dl' 
+cox       = '6.61E-06+dcox_rm7'      capsw    = '1.17E-10+dcapsw_rm7'
C1 n2 sub 'cox*weff*leff/2+capsw*weff+capsw*leff'    
R1 n2 n1 'rsh*(l*0.9)/weff*tcoef(temper)*max(min(1.0+rvc1*abs(v(n2,n1))+rvc2*v(n2,n1)*v(n2,n1),1.5),0.5)'
C2 n1 sub 'cox*weff*leff/2+capsw*weff+capsw*leff'  
.ends rm7_ckt

*****************************************  
*        Top Metal resistance         *  
*****************************************
.subckt rm8_ckt n2 n1 sub l=lr w=wr   
.param  
+rsh       = '0.0202+drsh_rm8'       rtc1 = 3.80E-03     rtc2 = -8.22E-07   dw = '1.78E-08+ddw_rm8'
+jc1a      = -8.96E-04               jc1b = 6.82E-06
+jc2a      = 5.08E-06                jc2b = 3.19E-07
+rvc1      = 'jc1a+jc1b/(l*0.9)'           rvc2   = '(jc2a+jc2b/(l*0.9))/(l*0.9)'          
+tcoef(temper)     = '1.0+(temper-25.0)*(rtc1+rtc2*(temper-25.0))' 
+dl        = '1.78E-08+ddw_rm8'     weff = 'w*0.9-2*dw'     leff = 'l*0.9-2*dl' 
+cox       = '5.48E-06+dcox_rm8'   capsw    = '1.23E-10+dcapsw_rm8'
C1 n2 sub 'cox*weff*leff/2+capsw*weff+capsw*leff'    
R1 n2 n1 'rsh*(l*0.9)/weff*tcoef(temper)*max(min(1.0+rvc1*abs(v(n2,n1))+rvc2*v(n2,n1)*v(n2,n1),1.5),0.5)'
C2 n1 sub 'cox*weff*leff/2+capsw*weff+capsw*leff'  
.ends rm8_ckt

****************************************************************** 
*                      ALPA resistance                           *  
****************************************************************** 
.subckt ralpa_ckt n2 n1 sub l=lr w=wr   
.param  
+rsh       = '0.0231+DRSH_RALPA'       rtc1 = 3.8865E-03   rtc2 = 5.5735E-08   dw = '-5.79E-08+DDW_RALPA'
+jc1a      = 1.9362E-05              jc1b = -9.0694E-08
+jc2a      = 1.6459E-05              jc2b = 2.5230E-07
+rvc1      = 'jc1a+jc1b/(l*0.9)'           rvc2   = '(jc2a+jc2b/(l*0.9))/(l*0.9)'   
+tcoef(temper)     = '1.0+(temper-25.0)*(rtc1+rtc2*(temper-25.0))' 
+dl        = '-5.79E-08+DDW_RALPA'     weff = 'w*0.9-2*dw'     leff = 'l*0.9-2*dl' 
+cox       = '4.433E-06+dcox_ralpa'    capsw    = '4.553E-11+dcapsw_ralpa'
C1 n2 sub 'cox*weff*leff/2+capsw*weff+capsw*leff'    
R1 n2 n1 'rsh*(l*0.9)/weff*tcoef(temper)*max(min(1.0+rvc1*abs(v(n2,n1))+rvc2*v(n2,n1)*v(n2,n1),1.5),0.5)'
C2 n1 sub 'cox*weff*leff/2+capsw*weff+capsw*leff'  
.ends ralpa_ckt

********************************************************************************
* MOS Varactor model