* 
* No part of this file can be released without the consent of SMIC.
*
***********************************************************************************************
* SMIC 0.11um Mixed Signal 1P8M(1P7M, 1P6M, 1P5M) 1.2V/3.3V SPICE MIM model (for HSPICE only) * 
***********************************************************************************************
*
* Release version    : 1.24
*
* Release date       : 1/16/2015
*
* Simulation tool    : Synopsys Star-HSPICE version C-2009.09
*
* MIM capacitor    : mim 
*   
* mim cap:
*        *---------------------------------------------------------------------------------------------------------* 
*        |  mim cap type           |  cspec = 1ff/um^2  | cspec = 1.5ff/um^2 | cspec = 2ff/um^2 | cspec = 3ff/um^2 |
*        |=========================================================================================================| 
*        |  mim model(one mask)    |     mim1           |   mim15            |    NA            |    mim3          |
*        |---------------------------------------------------------------------------------------------------------|
*        |  mim model(two mask)    |       NA           |      NA            |  mim2_tm         |    NA            |
*        |---------------------------------------------------------------------------------------------------------|
* Valid temperature range is from -40C to 125C
*
******************************************************************************** 
*         one-mask mim capacitor  (cspec = 1ff/um^2)                           * 
********************************************************************************
.model mim1 c
+COX = '9.71E-04*(1+DMIM1)'        TC1 = 4.088E-05          TREF  = 25
*
******************************************************************************** 
*         one-mask mim capacitor  (cspec = 1.5ff/um^2)                         * 
********************************************************************************
.model mim15 c
+COX = '1.449E-03*(1+DMIM15)'       TC1 = 3.758E-05         TREF  = 25
*
******************************************************************************** 
*         two-mask mim capacitor  (cspec = 2ff/um^2)                           * 
********************************************************************************
.model mim2_tm c
+COX = '2.1E-03*(1+DMIM2_tm)'       TC1 = 3.25876E-05         TREF  = 25
*
**************************************************************** 
*          one-mask stacked mim capacitor(cspec = 3ff/um^2)    * 
****************************************************************
.model mim3 c
+COX = '3.01368807E-03*(1+Dmim3)'        TC1 = 4.497955E-05          TREF  = 25
*