* 
* No part of this file can be released without the consent of SMIC.
*
************************************************************************************************************
* SMIC 0.11um Mixed Signal 1P6M(1P5M, 1P7M, 1P8M) 1.2V/3.3V SPICE model (for HSPICE only) * 
************************************************************************************************************
*
* Release version    : 1.14
*
* Release date       : 03/28/2016
*
* Simulation tool    : Synopsys Star-HSPICE version I-2013.12
*
*  Inductor   :
* *  *------------------------*-----------------------------------------------------------------------------------------------------*
*    |  Turn, Radius & Width  |T=1~3 step 0.5,W=5~13.5um,R=1.7071*W+16.378~120um;T=3.5~5.0 step 0.5,W=5~8um,R=1.7071*W+16.378~120um |
* *  *------------------------*-----------------------------------------------------------------------------------------------------*
*    |        Model Name      |     ind_rf_pgs_psub_n                            							      	|   
* *  *------------------------*-----------------------------------------------------------------------------------------------------*
.subckt ind_rf_pgs_psub_n PLUS MINUS PSUB r=6e-05 w=8e-06 n=3
.param radius_='0.00833333*(r/1e-06-0)' w_='0.0666667*(w/1e-06-0)'
.param T51='(1-abs(sgn(n-(1.5))))'
.param T52='(min(sgn(radius_-(0.416958))+1,1))'
.param T53='(min(sgn(w_+7.291667e-01*radius_-(0.904432))+1,1))'
.param T54='(min(sgn(w_-(0.6004))+1,1))'
.param T55='(min(sgn(radius_-(0.416375))+1,1))'
.param T56='(min(sgn(radius_-(0.708625))+1,1))'
.param T57='(min(sgn(w_+7.291667e-01*radius_-(0.903207))+1,1))'
.param T58='(min(sgn(w_-(0.5996))+1,1))'
.param T59='(min(sgn(radius_-(0.708042))+1,1))'
.param T60='(1-abs(sgn(n-(1))))'
.param T61='(1-abs(sgn(n-(2.5))))'
.param T62='(1-abs(sgn(n-(2))))'
.param T63='(1-abs(sgn(n-(3.5))))'
.param T64='(1-abs(sgn(n-(3))))'
.param T65='(1-abs(sgn(n-(4.5))))'
.param T66='(1-abs(sgn(n-(4))))'
.param T67='(1-abs(sgn(n-(5))))'
.param S0='T51*(1-T52)*(1-T53)'
.param noS0='(1-S0)'
.param S1='T51*(1-T54)*T55*(1-T56)*noS0'
.param noS1='(1-S1)*noS0'
.param S2='T51*T57*T58*(1-T56)*noS1'
.param noS2='(1-S2)*noS1'
.param S3='T51*(1-T54)*T59*noS2'
.param noS3='(1-S3)*noS2'
.param S4='T51*T59*T58*noS3'
.param noS4='(1-S4)*noS3'
.param S5='T60*(1-T52)*(1-T53)*noS4'
.param noS5='(1-S5)*noS4'
.param S6='T60*(1-T54)*T55*(1-T56)*noS5'
.param noS6='(1-S6)*noS5'
.param S7='T60*T57*T58*(1-T56)*noS6'
.param noS7='(1-S7)*noS6'
.param S8='T60*(1-T54)*T59*noS7'
.param noS8='(1-S8)*noS7'
.param S9='T60*T59*T58*noS8'
.param noS9='(1-S9)*noS8'
.param S10='T61*(1-T52)*(1-T53)*noS9'
.param noS10='(1-S10)*noS9'
.param S11='T61*(1-T54)*T55*(1-T56)*noS10'
.param noS11='(1-S11)*noS10'
.param S12='T61*T57*T58*(1-T56)*noS11'
.param noS12='(1-S12)*noS11'
.param S13='T61*(1-T54)*T59*noS12'
.param noS13='(1-S13)*noS12'
.param S14='T61*T59*T58*noS13'
.param noS14='(1-S14)*noS13'
.param S15='T62*(1-T52)*(1-T53)*noS14'
.param noS15='(1-S15)*noS14'
.param S16='T62*(1-T54)*T55*(1-T56)*noS15'
.param noS16='(1-S16)*noS15'
.param S17='T62*T57*T58*(1-T56)*noS16'
.param noS17='(1-S17)*noS16'
.param S18='T62*(1-T54)*T59*noS17'
.param noS18='(1-S18)*noS17'
.param S19='T62*T59*T58*noS18'
.param noS19='(1-S19)*noS18'
.param S20='T63*(1-T52)*noS19'
.param noS20='(1-S20)*noS19'
.param S21='T63*T55*(1-T56)*noS20'
.param noS21='(1-S21)*noS20'
.param S22='T63*T59*noS21'
.param noS22='(1-S22)*noS21'
.param S23='T64*(1-T52)*(1-T53)*noS22'
.param noS23='(1-S23)*noS22'
.param S24='T64*(1-T54)*T55*(1-T56)*noS23'
.param noS24='(1-S24)*noS23'
.param S25='T64*T57*T58*(1-T56)*noS24'
.param noS25='(1-S25)*noS24'
.param S26='T64*(1-T54)*T59*noS25'
.param noS26='(1-S26)*noS25'
.param S27='T64*T59*T58*noS26'
.param noS27='(1-S27)*noS26'
.param S28='T65*(1-T52)*noS27'
.param noS28='(1-S28)*noS27'
.param S29='T65*T55*(1-T56)*noS28'
.param noS29='(1-S29)*noS28'
.param S30='T65*T59*noS29'
.param noS30='(1-S30)*noS29'
.param S31='T66*(1-T52)*noS30'
.param noS31='(1-S31)*noS30'
.param S32='T66*T55*(1-T56)*noS31'
.param noS32='(1-S32)*noS31'
.param S33='T66*T59*noS32'
.param noS33='(1-S33)*noS32'
.param S34='T67*(1-T52)*noS33'
.param noS34='(1-S34)*noS33'
.param S35='T67*T55*(1-T56)*noS34'
.param noS35='(1-S35)*noS34'
.param S36='T67*T59*noS35'
.param noS36='(1-S36)*noS35'
.param V0_part1='6.706940e-02*S0+8.771798e-03*S1+0.000000e+00*S2+0.000000e+00*S3+0.000000e+00*S4+0.000000e+00*S5+0.000000e+00*S6+0.000000e+00*S7+0.000000e+00*S8+0.000000e+00*S9'
.param V0_part2='V0_part1+0.000000e+00*S10+(-4.500103e-01)*S11+1.018617e-01*S12+(-1.801514e+00)*S13+0.000000e+00*S14+(-2.480988e+00)*S15+(-4.302653e+00)*S16+0.000000e+00*S17+1.165178e+00*S18+(-2.938107e+01)*S19'
.param V0_part3='V0_part2+0.000000e+00*S20+0.000000e+00*S21+0.000000e+00*S22+0.000000e+00*S23+0.000000e+00*S24+0.000000e+00*S25+(-8.626834e+00)*S26+0.000000e+00*S27+0.000000e+00*S28+0.000000e+00*S29'
.param V0='V0_part3+(-1.205511e+01)*S30+0.000000e+00*S31+0.000000e+00*S32+0.000000e+00*S33+0.000000e+00*S34+0.000000e+00*S35+0.000000e+00*S36'
.param V1_part1='2.686316e+01*S0+2.769156e+01*S1+0.000000e+00*S2+0.000000e+00*S3+0.000000e+00*S4+0.000000e+00*S5+0.000000e+00*S6+0.000000e+00*S7+0.000000e+00*S8+0.000000e+00*S9'
.param V1_part2='V1_part1+0.000000e+00*S10+1.277478e+01*S11+3.501357e-01*S12+1.604120e+01*S13+0.000000e+00*S14+3.357469e+01*S15+2.824707e+01*S16+0.000000e+00*S17+3.704576e+01*S18+4.554832e+01*S19'
.param V1_part3='V1_part2+0.000000e+00*S20+0.000000e+00*S21+0.000000e+00*S22+0.000000e+00*S23+0.000000e+00*S24+0.000000e+00*S25+2.179308e+01*S26+0.000000e+00*S27+0.000000e+00*S28+0.000000e+00*S29'
.param V1='V1_part3+4.036215e+01*S30+0.000000e+00*S31+0.000000e+00*S32+0.000000e+00*S33+0.000000e+00*S34+0.000000e+00*S35+0.000000e+00*S36'
.param V2_part1='(-1.039065e+01)*S0+(-1.114054e+01)*S1+0.000000e+00*S2+0.000000e+00*S3+0.000000e+00*S4+0.000000e+00*S5+0.000000e+00*S6+0.000000e+00*S7+0.000000e+00*S8+0.000000e+00*S9'
.param V2_part2='V2_part1+0.000000e+00*S10+9.563871e-01*S11+5.092456e-02*S12+(-1.354546e+00)*S13+0.000000e+00*S14+1.473535e+00*S15+(-1.700649e+00)*S16+0.000000e+00*S17+(-3.901627e+01)*S18+6.324147e+00*S19'
.param V2_part3='V2_part2+0.000000e+00*S20+0.000000e+00*S21+0.000000e+00*S22+0.000000e+00*S23+0.000000e+00*S24+0.000000e+00*S25+5.708420e-01*S26+0.000000e+00*S27+0.000000e+00*S28+0.000000e+00*S29'
.param V2='V2_part3+(-1.016759e+01)*S30+0.000000e+00*S31+0.000000e+00*S32+0.000000e+00*S33+0.000000e+00*S34+0.000000e+00*S35+0.000000e+00*S36'
.param V3_part1='(-9.289502e-02)*S0+(-2.423093e-01)*S1+1.786207e+01*S2+(-4.714740e-01)*S3+(-4.906457e-01)*S4+(-1.908046e-01)*S5+(-3.697507e-01)*S6+(-1.288413e-01)*S7+(-7.124345e-01)*S8+(-3.298215e-01)*S9'
.param V3_part2='V3_part1+(-8.707372e-02)*S10+(-1.215435e+00)*S11+8.294896e-03*S12+(-5.237036e-01)*S13+(-9.341215e-01)*S14+(-2.868522e-01)*S15+(-4.317691e-01)*S16+(-1.138101e-01)*S17+(-8.963756e-01)*S18+(-5.279721e-01)*S19'
.param V3_part3='V3_part2+(-2.424475e-01)*S20+(-6.334610e-01)*S21+(-1.230426e+00)*S22+(-3.186449e-01)*S23+(-4.722558e-01)*S24+6.166916e-02*S25+(-1.322141e+00)*S26+(-5.430105e-01)*S27+(-7.808132e-01)*S28+(-6.813459e-01)*S29'
.param V3='V3_part3+(-1.460057e+00)*S30+(-2.201382e+00)*S31+(-6.698481e-01)*S32+(-1.395894e+00)*S33+(-2.591356e-01)*S34+(-5.830727e-01)*S35+(-7.948682e+00)*S36'
.param V4_part1='6.296895e-01*S0+6.428929e-01*S1+(-4.310579e-01)*S2+9.272212e-01*S3+4.883327e-01*S4+2.217717e-01*S5+3.399495e-01*S6+1.274319e-01*S7+5.778129e-03*S8+1.955272e-01*S9'
.param V4_part2='V4_part1+7.576609e-01*S10+1.277118e+00*S11+5.681789e-01*S12+(-2.301695e+00)*S13+9.048445e-01*S14+6.813941e-01*S15+1.637456e+00*S16+1.216810e+00*S17+1.648160e+00*S18+1.250411e+00*S19'
.param V4_part3='V4_part2+2.310374e+00*S20+2.553091e+00*S21+2.995839e+00*S22+2.874484e+00*S23+2.254376e+00*S24+4.252402e-01*S25+5.360258e-01*S26+8.146851e-01*S27+4.579948e+00*S28+3.213587e+00*S29'
.param V4='V4_part3+3.293119e+00*S30+(-3.577007e+00)*S31+2.960452e+00*S32+2.990745e+00*S33+3.244294e+00*S34+3.396598e+00*S35+1.384057e+00*S36'
.param V5_part1='1.169767e-01*S0+1.851693e-01*S1+5.982505e+00*S2+2.192013e-01*S3+8.441039e-01*S4+2.967490e-01*S5+4.342589e-01*S6+5.474076e-01*S7+1.698185e+00*S8+1.058230e+00*S9'
.param V5_part2='V5_part1+8.076078e-01*S10+1.408243e+00*S11+9.936499e-01*S12+4.089479e+00*S13+1.433009e+00*S14+4.650567e-01*S15+1.905050e-01*S16+1.399333e-01*S17+3.164189e-01*S18+3.239662e-01*S19'
.param V5_part3='V5_part2+2.441519e-01*S20+3.372593e-01*S21+4.846975e-01*S22+1.996434e-01*S23+2.545152e-01*S24+1.704969e+00*S25+2.563397e+00*S26+1.738104e+00*S27+2.507950e+00*S28+4.291957e-01*S29'
.param V5='V5_part3+6.082943e-01*S30+3.707499e+00*S31+3.631538e-01*S32+5.245692e-01*S33+3.123231e-01*S34+4.160737e-01*S35+7.586608e+00*S36'
.param V6_part1='(-4.739273e-03)*S0+(-7.592025e-03)*S1+(-4.692337e-02)*S2+(-3.532433e-03)*S3+(-1.310795e-02)*S4+(-5.911782e-03)*S5+(-4.730840e-03)*S6+(-5.857365e-04)*S7+2.286120e-03*S8+1.294234e-02*S9'
.param V6_part2='V6_part1+(-1.497430e-02)*S10+(-1.704554e-02)*S11+(-1.182418e-02)*S12+2.453258e-01*S13+(-2.186761e-02)*S14+(-1.829577e-02)*S15+(-5.598186e-02)*S16+(-3.610758e-02)*S17+(-9.844816e-02)*S18+(-1.028756e-01)*S19'
.param V6_part3='V6_part2+(-4.237168e-02)*S20+(-1.526212e-01)*S21+(-3.458138e-01)*S22+(-5.825180e-02)*S23+(-1.062814e-01)*S24+3.172584e-02*S25+6.011305e-02*S26+(-2.428761e-02)*S27+3.090677e-02*S28+(-2.340828e-01)*S29'
.param V6='V6_part3+(-4.961552e-01)*S30+7.569500e-01*S31+(-1.993801e-01)*S32+(-3.853702e-01)*S33+(-9.996175e-02)*S34+(-2.833185e-01)*S35+(-1.295014e-02)*S36'
.param V7_part1='7.116180e-01*S0+7.807401e-01*S1+2.538904e+00*S2+8.278810e-01*S3+7.725477e-01*S4+2.924509e-01*S5+3.129286e-01*S6+2.880087e-01*S7+3.833444e-01*S8+3.261259e-01*S9'
.param V7_part2='V7_part1+1.671874e+00*S10+1.848279e+00*S11+1.656505e+00*S12+1.843852e+00*S13+1.854901e+00*S14+1.010962e+00*S15+1.236429e+00*S16+1.152742e+00*S17+1.342242e+00*S18+1.298815e+00*S19'
.param V7_part3='V7_part2+3.281753e+00*S20+3.658960e+00*S21+4.080756e+00*S22+2.431126e+00*S23+2.575358e+00*S24+2.129600e+00*S25+2.508239e+00*S26+2.379545e+00*S27+4.821243e+00*S28+5.657376e+00*S29'
.param V7='V7_part3+6.252351e+00*S30+3.509719e+00*S31+4.384555e+00*S32+4.800055e+00*S33+5.839553e+00*S34+6.503209e+00*S35+6.566754e+00*S36'
.param V8_part1='(-5.446428e-03)*S0+(-6.080998e-02)*S1+1.797027e-01*S2+(-1.356022e-01)*S3+(-6.880945e-02)*S4+(-1.375212e-02)*S5+(-3.146708e-02)*S6+(-1.352583e-02)*S7+(-5.206480e-02)*S8+(-4.152714e-02)*S9'
.param V8_part2='V8_part1+(-1.512999e-02)*S10+(-1.602196e-01)*S11+(-5.722022e-03)*S12+(-4.692003e-01)*S13+(-1.629772e-01)*S14+(-2.958944e-02)*S15+(-4.717413e-02)*S16+(-1.128315e-02)*S17+(-1.112002e-01)*S18+(-4.218930e-02)*S19'
.param V8_part3='V8_part2+1.330694e-01*S20+3.995494e-02*S21+(-1.434420e-01)*S22+3.683949e-02*S23+(-5.587386e-02)*S24+(-6.680990e-02)*S25+(-4.975247e-01)*S26+(-2.234247e-01)*S27+9.057408e-02*S28+2.593494e-01*S29'
.param V8='V8_part3+(-1.434051e-01)*S30+(-4.630265e-01)*S31+7.298007e-02*S32+(-2.404610e-01)*S33+5.187780e-01*S34+2.988594e-01*S35+(-1.232476e+00)*S36'
.param V9_part1='7.751124e+00*S0+2.397491e+00*S1+(-9.807390e-02)*S2+(-1.201800e+00)*S3+(-5.174376e-01)*S4+(-2.977978e-01)*S5+(-5.534069e-01)*S6+(-1.855803e-01)*S7+(-5.422862e-01)*S8+(-3.612400e-01)*S9'
.param V9_part2='V9_part1+(-4.783310e-01)*S10+(-9.312847e-01)*S11+(-3.252625e-01)*S12+(-1.728913e+00)*S13+(-8.605138e-01)*S14+(-5.155078e-01)*S15+(-1.939915e+00)*S16+(-3.593077e-01)*S17+(-1.890633e+00)*S18+(-9.771018e-01)*S19'
.param V9_part3='V9_part2+6.736491e-01*S20+(-6.531415e+00)*S21+(-8.389289e+00)*S22+(-1.717357e-01)*S23+(-3.632447e+00)*S24+(-3.605967e-01)*S25+(-2.219429e+00)*S26+(-1.271501e+00)*S27+(-4.048428e-01)*S28+(-8.084475e+00)*S29'
.param V9='V9_part3+(-1.652002e+01)*S30+(-4.312012e-01)*S31+(-6.205910e+00)*S32+(-1.251144e+01)*S33+(-1.466552e+00)*S34+(-1.104714e+01)*S35+(-2.715491e+00)*S36'
.param V10_part1='9.476931e+00*S0+6.111834e+00*S1+6.979741e-01*S2+(-4.250540e+00)*S3+1.780199e+00*S4+1.790693e+00*S5+1.586127e+00*S6+7.258931e-01*S7+8.027211e-01*S8+5.960280e-01*S9'
.param V10_part2='V10_part1+4.309468e+00*S10+4.111787e+00*S11+2.510700e+00*S12+3.276203e+00*S13+2.860098e+00*S14+4.364785e+00*S15+1.656504e+00*S16+8.816777e-01*S17+6.848594e-01*S18+8.790573e-01*S19'
.param V10_part3='V10_part2+5.185822e+00*S20+4.367516e+00*S21+4.188219e+00*S22+2.218726e+00*S23+3.218946e+00*S24+2.400682e+00*S25+4.190576e+00*S26+2.854699e+00*S27+5.616805e+00*S28+6.982942e+00*S29'
.param V10='V10_part3+5.224920e-01*S30+5.669122e+00*S31+5.242096e+00*S32+1.292596e+00*S33+8.137485e+00*S34+8.018648e+00*S35+6.843527e+00*S36'
.param V11_part1='8.909352e-01*S0+3.959053e+00*S1+3.029481e-01*S2+6.081374e+00*S3+4.574577e-01*S4+1.554572e-01*S5+2.473651e-01*S6+2.132166e-01*S7+3.290281e-01*S8+3.416173e-01*S9'
.param V11_part2='V11_part1+3.411958e-01*S10+4.825211e-01*S11+5.079478e-01*S12+7.495833e-01*S13+7.296555e-01*S14+2.517451e-01*S15+2.085019e+00*S16+1.296095e+00*S17+2.917370e+00*S18+1.981609e+00*S19'
.param V11_part3='V11_part2+2.518205e+00*S20+6.141167e+00*S21+6.431519e+00*S22+1.302054e+00*S23+3.724322e+00*S24+5.296305e-01*S25+9.384876e-01*S26+9.980297e-01*S27+5.634377e-01*S28+7.300617e+00*S29'
.param V11='V11_part3+1.563778e+01*S30+3.846250e-01*S31+5.544469e+00*S32+1.159924e+01*S33+4.756099e+00*S34+8.914700e+00*S35+1.274704e+00*S36'
.param V12_part1='(-3.577463e-02)*S0+(-9.256965e-02)*S1+8.049946e-03*S2+9.056658e-01*S3+(-8.749147e-02)*S4+(-1.040380e-02)*S5+(-2.642379e-02)*S6+(-1.520850e-02)*S7+(-4.747235e-02)*S8+(-3.536408e-02)*S9'
.param V12_part2='V12_part1+(-6.263984e-02)*S10+(-1.613166e-01)*S11+(-1.115672e-01)*S12+(-2.620911e-01)*S13+(-2.942665e-01)*S14+(-5.948992e-02)*S15+(-2.773394e-02)*S16+(-2.903326e-02)*S17+2.889849e-02*S18+(-2.674676e-02)*S19'
.param V12_part3='V12_part2+(-2.591100e-02)*S20+1.255788e-01*S21+(-8.873569e-02)*S22+(-6.464781e-02)*S23+(-4.839156e-02)*S24+(-1.263540e-01)*S25+(-3.681345e-01)*S26+(-3.394479e-01)*S27+(-1.427899e-01)*S28+2.673966e-02*S29'
.param V12='V12_part3+9.836086e-01*S30+(-1.853872e-02)*S31+(-6.276313e-03)*S32+5.724359e-01*S33+2.839127e-02*S34+1.217368e-02*S35+(-9.227734e-01)*S36'
.param V13_part1='2.330734e+00*S0+2.609357e+00*S1+1.396846e+00*S2+1.575905e+00*S3+1.780724e+00*S4+6.510387e-01*S5+6.911042e-01*S6+6.265905e-01*S7+7.167472e-01*S8+6.870031e-01*S9'
.param V13_part2='V13_part1+3.731723e+00*S10+4.104539e+00*S11+3.768018e+00*S12+4.365816e+00*S13+4.288957e+00*S14+2.309483e+00*S15+2.214317e+00*S16+2.000167e+00*S17+2.345857e+00*S18+2.212401e+00*S19'
.param V13_part3='V13_part2+6.122053e+00*S20+6.732712e+00*S21+7.393934e+00*S22+4.285396e+00*S23+4.702337e+00*S24+4.704423e+00*S25+5.634007e+00*S26+5.387294e+00*S27+1.007708e+01*S28+1.053492e+01*S29'
.param V13='V13_part3+1.108651e+01*S30+7.216084e+00*S31+8.093918e+00*S32+8.636174e+00*S33+1.109132e+01*S34+1.217124e+01*S35+1.432041e+01*S36'
.param V14_part1='1.444372e-01*S0+5.009751e-02*S1+(-1.523184e-02)*S2+(-9.666590e-01)*S3+(-1.086537e-01)*S4+(-1.249719e-02)*S5+(-2.007722e-02)*S6+(-1.121271e-02)*S7+(-6.158413e-02)*S8+(-4.495382e-02)*S9'
.param V14_part2='V14_part1+5.910561e-02*S10+(-7.996590e-02)*S11+1.017180e-01*S12+(-3.973623e-01)*S13+(-3.241576e-02)*S14+(-4.678003e-03)*S15+(-2.290458e-01)*S16+(-5.975714e-02)*S17+(-4.515763e-01)*S18+(-2.293367e-01)*S19'
.param V14_part3='V14_part2+2.631907e-02*S20+(-8.236196e-01)*S21+(-1.487003e+00)*S22+(-7.200195e-02)*S23+(-4.498803e-01)*S24+9.139253e-02*S25+(-4.741281e-01)*S26+(-1.667234e-01)*S27+8.731918e-01*S28+(-7.608085e-01)*S29'
.param V14='V14_part3+(-3.152057e+00)*S30+5.107840e-02*S31+(-8.146088e-01)*S32+(-2.595040e+00)*S33+1.690856e-01*S34+(-9.553339e-01)*S35+(-9.921976e-01)*S36'
.param V15_part1='1.307742e+00*S0+1.296546e+00*S1+3.598787e-01*S2+(-3.518191e-01)*S3+2.270946e+00*S4+3.049234e-01*S5+8.827302e-01*S6+9.163181e-01*S7+6.594643e-01*S8+6.403707e-01*S9'
.param V15_part2='V15_part1+1.257224e+00*S10+9.546523e-01*S11+1.105548e+00*S12+(-4.447668e-01)*S13+1.254015e+00*S14+1.159837e+00*S15+7.462046e-01*S16+1.330943e+00*S17+3.751647e-01*S18+1.405297e+00*S19'
.param V15_part3='V15_part2+1.042797e+00*S20+2.095157e-01*S21+8.662223e-01*S22+1.495626e+00*S23+6.251655e-01*S24+3.582023e-01*S25+3.035965e-01*S26+1.063137e+00*S27+5.992943e-01*S28+7.156160e-01*S29'
.param V15='V15_part3+(-6.171904e-01)*S30+(-5.824140e-02)*S31+5.477193e-01*S32+(-5.592391e-01)*S33+6.747078e-01*S34+5.362591e-01*S35+(-1.537855e-01)*S36'
.param V16_part1='(-1.370037e-01)*S0+(-1.727206e-01)*S1+(-7.561592e-02)*S2+1.390068e+00*S3+(-3.434252e-01)*S4+2.130890e+00*S5+1.146053e+00*S6+5.322099e-01*S7+9.867898e-02*S8+2.223594e-01*S9'
.param V16_part2='V16_part1+1.659125e+00*S10+1.285092e+00*S11+7.151121e-01*S12+1.689066e+00*S13+4.096876e-01*S14+1.975322e+00*S15+1.651248e+00*S16+6.151373e-01*S17+1.461130e+00*S18+5.144222e-01*S19'
.param V16_part3='V16_part2+1.383585e+00*S20+1.759201e+00*S21+1.575817e+00*S22+1.386591e+00*S23+1.827779e+00*S24+1.127174e+00*S25+1.289875e+00*S26+5.207719e-01*S27+1.709245e+00*S28+1.742772e+00*S29'
.param V16='V16_part3+2.313266e+00*S30+2.798172e+00*S31+1.785027e+00*S32+2.044150e+00*S33+2.090951e+00*S34+1.896995e+00*S35+2.857290e+00*S36'
.param V17_part1='(-3.989884e-01)*S0+(-4.577185e-01)*S1+(-7.217999e-02)*S2+1.087649e+00*S3+4.513530e-01*S4+1.305547e+00*S5+(-6.724217e-02)*S6+9.037756e-02*S7+(-4.049434e-01)*S8+(-8.834163e-02)*S9'
.param V17_part2='V17_part1+3.452572e-01*S10+4.329651e-01*S11+1.575463e-01*S12+3.774640e-01*S13+7.637779e-03*S14+8.913676e-01*S15+3.886114e-01*S16+5.165487e-01*S17+(-1.709497e-01)*S18+(-2.096461e-01)*S19'
.param V17_part3='V17_part2+(-3.831012e-01)*S20+6.609266e-01*S21+(-1.696100e-01)*S22+8.589805e-02*S23+7.275795e-01*S24+2.017367e-01*S25+1.123879e-01*S26+(-1.568522e-01)*S27+(-5.640837e-02)*S28+1.361940e-01*S29'
.param V17='V17_part3+6.835730e-01*S30+1.312543e+00*S31+4.297228e-01*S32+1.060935e+00*S33+(-1.293243e-01)*S34+7.528523e-01*S35+7.545436e-01*S36'
.param V18_part1='(-5.456904e-01)*S0+(-1.452313e+00)*S1+(-1.851381e+00)*S2+6.113579e-01*S3+(-1.437075e+00)*S4+(-4.920300e+01)*S5+(-1.441278e+01)*S6+(-5.716984e+00)*S7+(-3.040550e+01)*S8+(-3.748293e+00)*S9'
.param V18_part2='V18_part1+(-1.395382e+00)*S10+(-1.497044e+00)*S11+(-2.919557e+00)*S12+(-1.931752e+00)*S13+(-2.787009e+00)*S14+(-2.541776e-01)*S15+(-1.899330e-01)*S16+(-1.486988e+00)*S17+(-1.916124e+00)*S18+3.093284e+00*S19'
.param V18_part3='V18_part2+(-1.973750e+00)*S20+(-1.312415e+00)*S21+(-2.132076e+00)*S22+(-1.578094e+00)*S23+(-1.282793e+00)*S24+(-2.225450e+00)*S25+(-9.608144e-01)*S26+(-2.714117e+00)*S27+(-1.704528e+00)*S28+(-2.308929e+00)*S29'
.param V18='V18_part3+(-9.346961e-01)*S30+(-3.586042e+00)*S31+(-1.483306e+00)*S32+(-2.261530e+00)*S33+(-1.783179e+00)*S34+(-2.123020e+00)*S35+(-3.335822e+00)*S36'
.param V19_part1='1.460053e+00*S0+1.520751e+00*S1+9.142988e+00*S2+2.161668e+01*S3+6.752977e+00*S4+1.425578e+01*S5+2.355393e+01*S6+3.443974e+01*S7+3.027850e+01*S8+7.923439e+00*S9'
.param V19_part2='V19_part1+8.997682e+00*S10+6.284541e+00*S11+1.193903e+01*S12+5.843808e+00*S13+9.144980e+00*S14+1.382596e+00*S15+2.299435e+00*S16+9.218756e+00*S17+9.491084e-01*S18+7.466201e-02*S19'
.param V19_part3='V19_part2+1.039116e+01*S20+8.270420e+00*S21+9.122730e+00*S22+9.448116e+00*S23+9.129488e+00*S24+1.089746e+01*S25+5.569080e+00*S26+9.394180e+00*S27+1.011072e+01*S28+1.001663e+01*S29'
.param V19='V19_part3+1.593624e+00*S30+2.329013e+01*S31+9.156837e+00*S32+9.162154e+00*S33+1.004937e+01*S34+1.020184e+01*S35+9.747134e+00*S36'
.param V20_part1='5.445980e+00*S0+7.386807e+00*S1+4.303885e+00*S2+1.009686e+01*S3+5.788542e+00*S4+1.611026e+02*S5+3.002534e+01*S6+(-7.656726e-01)*S7+5.851291e+01*S8+9.517763e+00*S9'
.param V20_part2='V20_part1+7.485159e+00*S10+7.592379e+00*S11+8.374113e+00*S12+8.982189e+00*S13+1.063205e+01*S14+4.144060e+00*S15+5.599124e+00*S16+5.182955e+00*S17+1.396399e+01*S18+5.851709e+00*S19'
.param V20_part3='V20_part2+1.083291e+01*S20+1.076820e+01*S21+1.118420e+01*S22+8.488361e+00*S23+6.918040e+00*S24+8.823002e+00*S25+9.112589e+00*S26+1.111889e+01*S27+1.252534e+01*S28+1.337112e+01*S29'
.param V20='V20_part3+1.823605e+01*S30+2.993995e+01*S31+1.033891e+01*S32+1.240944e+01*S33+1.312825e+01*S34+1.255251e+01*S35+1.614563e+01*S36'
.param V21_part1='4.659939e-01*S0+1.314149e+00*S1+4.531666e-01*S2+1.000000e+04*S3+2.806292e-01*S4+1.367659e+02*S5+1.285027e+02*S6+2.569182e+01*S7+1.596592e+02*S8+9.742963e+01*S9'
.param V21_part2='V21_part1+3.748924e-01*S10+2.156257e+00*S11+8.531187e-01*S12+1.086533e+01*S13+4.281221e-03*S14+9.416375e-01*S15+3.460650e-01*S16+2.724990e-01*S17+1.384087e+00*S18+(-4.707743e-01)*S19'
.param V21_part3='V21_part2+2.356716e-01*S20+8.500216e-01*S21+2.895944e+00*S22+1.981434e-01*S23+2.958536e-01*S24+3.155801e-01*S25+4.359593e-01*S26+2.804147e-01*S27+3.258652e-01*S28+2.736132e-01*S29'
.param V21='V21_part3+8.677640e-01*S30+2.368956e+03*S31+9.337059e-01*S32+(-3.333135e+03)*S33+3.623110e-01*S34+2.092545e-01*S35+4.025291e+00*S36'
.param V22_part1='1.948701e+00*S0+9.633530e-01*S1+(-1.375805e-01)*S2+9.646952e+02*S3+(-2.174640e-01)*S4+5.556796e+01*S5+7.323826e+00*S6+9.245893e+01*S7+(-2.306778e+01)*S8+1.981090e+00*S9'
.param V22_part2='V22_part1+5.677823e-01*S10+(-7.885912e-01)*S11+2.171777e-01*S12+(-7.168509e+00)*S13+(-2.530213e-01)*S14+1.466658e+00*S15+1.225579e-01*S16+(-3.110697e-01)*S17+2.660360e-02*S18+2.239781e+00*S19'
.param V22_part3='V22_part2+7.497187e-02*S20+4.098636e-02*S21+2.854330e-01*S22+(-6.184207e-02)*S23+(-3.368640e-01)*S24+8.393687e-02*S25+(-2.734967e-01)*S26+(-1.757087e-01)*S27+(-2.897189e-01)*S28+1.677804e-01*S29'
.param V22='V22_part3+(-6.808402e-01)*S30+3.857229e+02*S31+2.076738e+00*S32+8.368711e-01*S33+(-4.333246e-01)*S34+4.824308e-02*S35+3.815841e+01*S36'
.param V23_part1='(-1.019941e+00)*S0+(-1.313381e+00)*S1+1.759519e-01*S2+1.377262e+02*S3+3.499562e-01*S4+(-1.062172e+02)*S5+(-1.100103e+02)*S6+(-1.910736e+01)*S7+(-1.323562e+02)*S8+(-6.117874e+01)*S9'
.param V23_part2='V23_part1+(-2.423258e-01)*S10+(-1.720243e+00)*S11+(-4.576922e-01)*S12+(-5.291537e+00)*S13+1.094384e+00*S14+(-5.920735e-01)*S15+6.551917e-01*S16+2.810896e-01*S17+(-9.770630e-01)*S18+(-4.688945e-02)*S19'
.param V23_part3='V23_part2+1.555633e-01*S20+(-5.812307e-01)*S21+(-4.796199e+00)*S22+2.451517e-01*S23+6.245170e-01*S24+2.513817e-01*S25+5.103610e-01*S26+4.341919e-01*S27+5.083513e-01*S28+1.997432e-01*S29'
.param V23='V23_part3+(-8.582048e-02)*S30+1.007324e+02*S31+(-1.995307e+00)*S32+1.000000e+04*S33+7.863970e-01*S34+3.744624e-01*S35+4.310572e+02*S36'
.param V24_part1='(-2.050492e+00)*S0+0.000000e+00*S1+(-9.611695e+01)*S2+0.000000e+00*S3+0.000000e+00*S4+0.000000e+00*S5+(-2.986037e+00)*S6+(-4.834384e+00)*S7+(-9.337762e+00)*S8+(-1.269940e+01)*S9'
.param V24_part2='V24_part1+0.000000e+00*S10+(-4.711676e+02)*S11+(-1.707345e+02)*S12+(-7.224588e+02)*S13+0.000000e+00*S14+0.000000e+00*S15+(-2.627679e+01)*S16+1.561365e+01*S17+0.000000e+00*S18+0.000000e+00*S19'
.param V24_part3='V24_part2+1.495444e+02*S20+(-1.120318e+02)*S21+(-1.471098e+02)*S22+1.006927e+02*S23+0.000000e+00*S24+0.000000e+00*S25+(-2.626714e+02)*S26+(-9.915910e+01)*S27+0.000000e+00*S28+6.469577e+01*S29'
.param V24='V24_part3+(-3.472751e+03)*S30+0.000000e+00*S31+2.336341e+02*S32+(-6.189568e+02)*S33+0.000000e+00*S34+0.000000e+00*S35+4.912425e+02*S36'
.param V25_part1='3.184610e+01*S0+0.000000e+00*S1+7.429615e+02*S2+0.000000e+00*S3+0.000000e+00*S4+0.000000e+00*S5+2.373825e+01*S6+2.914266e+01*S7+2.839173e+01*S8+3.187711e+01*S9'
.param V25_part2='V25_part1+0.000000e+00*S10+1.586759e+03*S11+5.470479e+02*S12+2.162736e+03*S13+0.000000e+00*S14+0.000000e+00*S15+1.076273e+02*S16+5.806951e+02*S17+0.000000e+00*S18+0.000000e+00*S19'
.param V25_part3='V25_part2+(-4.285948e+01)*S20+7.698605e+02*S21+7.601704e+02*S22+2.304709e+02*S23+0.000000e+00*S24+0.000000e+00*S25+6.999643e+02*S26+7.424581e+02*S27+0.000000e+00*S28+4.235915e+02*S29'
.param V25='V25_part3+5.891802e+03*S30+0.000000e+00*S31+4.047335e+02*S32+1.271518e+03*S33+0.000000e+00*S34+0.000000e+00*S35+3.630916e+01*S36'
.param V26_part1='2.463342e+01*S0+0.000000e+00*S1+3.365444e+00*S2+0.000000e+00*S3+0.000000e+00*S4+0.000000e+00*S5+(-4.612957e+00)*S6+(-5.436564e+00)*S7+1.344959e+00*S8+1.469240e+01*S9'
.param V26_part2='V26_part1+0.000000e+00*S10+1.461829e+02*S11+2.269066e+01*S12+3.067936e+01*S13+0.000000e+00*S14+0.000000e+00*S15+(-1.435190e+01)*S16+(-3.220237e+01)*S17+0.000000e+00*S18+0.000000e+00*S19'
.param V26_part3='V26_part2+3.284180e+01*S20+1.753480e-01*S21+3.388173e+02*S22+(-5.220491e+01)*S23+0.000000e+00*S24+0.000000e+00*S25+4.503689e+00*S26+(-1.126246e+02)*S27+0.000000e+00*S28+(-1.954619e+01)*S29'
.param V26='V26_part3+1.685417e+03*S30+0.000000e+00*S31+(-5.087332e+02)*S32+(-4.354797e+02)*S33+0.000000e+00*S34+0.000000e+00*S35+4.394091e+02*S36'
.param V27_part1='(-4.907766e-01)*S0+(-1.416786e+00)*S1+(-1.913161e+00)*S2+(-8.317363e+00)*S3+(-1.670695e+00)*S4+(-2.799643e+01)*S5+(-9.973332e+00)*S6+(-1.154946e+00)*S7+(-1.779006e+01)*S8+(-3.406407e+00)*S9'
.param V27_part2='V27_part1+(-1.613930e+00)*S10+(-1.516919e+00)*S11+(-3.339524e+00)*S12+(-2.028725e+00)*S13+(-2.918594e+00)*S14+(-3.061131e-01)*S15+(-2.872921e-01)*S16+(-1.618635e+00)*S17+(-1.865712e+00)*S18+2.964196e+00*S19'
.param V27_part3='V27_part2+(-2.027532e+00)*S20+(-1.400339e+00)*S21+(-2.264082e+00)*S22+(-1.610634e+00)*S23+(-1.404242e+00)*S24+(-2.489379e+00)*S25+(-1.189124e+00)*S26+(-2.875907e+00)*S27+(-1.822029e+00)*S28+(-2.346500e+00)*S29'
.param V27='V27_part3+(-5.291872e-01)*S30+(-1.598199e+00)*S31+(-1.811318e+00)*S32+(-1.997702e+00)*S33+(-1.730522e+00)*S34+(-2.148906e+00)*S35+(-3.292094e+00)*S36'
.param V28_part1='1.345826e+00*S0+1.550261e+00*S1+9.110657e+00*S2+2.059542e+01*S3+6.778732e+00*S4+1.356070e+01*S5+1.647474e+01*S6+2.321505e+01*S7+1.966124e+01*S8+7.977425e+00*S9'
.param V28_part2='V28_part1+8.642479e+00*S10+6.212244e+00*S11+1.156010e+01*S12+5.864625e+00*S13+9.001148e+00*S14+1.434180e+00*S15+2.321498e+00*S16+9.521647e+00*S17+9.273163e-01*S18+1.743811e-01*S19'
.param V28_part3='V28_part2+1.016107e+01*S20+8.278014e+00*S21+9.097161e+00*S22+9.334735e+00*S23+9.121397e+00*S24+1.087088e+01*S25+5.702061e+00*S26+9.439805e+00*S27+9.833953e+00*S28+9.895596e+00*S29'
.param V28='V28_part3+1.216903e+00*S30+1.006340e+01*S31+9.189404e+00*S32+9.259134e+00*S33+9.821300e+00*S34+1.000074e+01*S35+9.573181e+00*S36'
.param V29_part1='6.059926e+00*S0+7.873066e+00*S1+5.103809e+00*S2+1.286490e+01*S3+6.762460e+00*S4+9.486666e+01*S5+2.538211e+01*S6+9.323823e+00*S7+3.986367e+01*S8+9.497885e+00*S9'
.param V29_part2='V29_part1+8.397823e+00*S10+8.008126e+00*S11+9.544603e+00*S12+9.323635e+00*S13+1.136214e+01*S14+4.273917e+00*S15+5.847381e+00*S16+5.286147e+00*S17+1.390995e+01*S18+6.031328e+00*S19'
.param V29_part3='V29_part2+1.101487e+01*S20+1.081955e+01*S21+1.133192e+01*S22+8.278306e+00*S23+6.905375e+00*S24+8.929647e+00*S25+9.008601e+00*S26+1.100088e+01*S27+1.251017e+01*S28+1.301304e+01*S29'
.param V29='V29_part3+1.719444e+01*S30+7.967395e+00*S31+1.028180e+01*S32+1.089829e+01*S33+1.198986e+01*S34+1.176730e+01*S35+1.496082e+01*S36'
.param V30_part1='1.921147e-01*S0+8.080166e-01*S1+5.052821e-01*S2+4.037982e+03*S3+(-1.313757e-01)*S4+1.014340e+02*S5+1.178312e+02*S6+4.512374e+01*S7+1.355042e+02*S8+6.199962e+01*S9'
.param V30_part2='V30_part1+3.593295e-01*S10+2.132304e+00*S11+4.627973e-01*S12+5.147220e+00*S13+(-1.089291e-02)*S14+4.546673e-02*S15+1.811269e+00*S16+9.015618e-01*S17+2.124157e+01*S18+(-4.779342e-01)*S19'
.param V30_part3='V30_part2+(-9.788725e-02)*S20+6.511456e+00*S21+1.186118e+00*S22+8.847437e-02*S23+1.626406e-01*S24+(-5.876088e-01)*S25+5.670479e-01*S26+2.633887e-01*S27+3.450568e-01*S28+1.162722e+00*S29'
.param V30='V30_part3+1.352868e+00*S30+7.104231e-02*S31+1.908997e-01*S32+1.000000e+04*S33+2.551744e-01*S34+1.022113e+00*S35+1.416331e+01*S36'
.param V31_part1='1.297254e+00*S0+6.307078e-01*S1+(-1.015222e-01)*S2+3.905220e+01*S3+(-2.511771e-01)*S4+7.567857e+01*S5+3.478676e+01*S6+1.758640e+02*S7+(-6.608865e+00)*S8+1.930041e+01*S9'
.param V31_part2='V31_part1+(-2.302945e-01)*S10+(-5.108907e-01)*S11+(-3.173191e-02)*S12+(-2.191776e+00)*S13+(-2.487653e-01)*S14+6.820714e+00*S15+5.454933e-01*S16+(-8.790911e-02)*S17+2.129571e+00*S18+1.194204e+00*S19'
.param V31_part3='V31_part2+(-5.058514e-01)*S20+2.289783e-02*S21+1.186736e-01*S22+(-8.675803e-01)*S23+(-1.926278e-01)*S24+(-4.068525e-01)*S25+(-3.148183e-01)*S26+(-1.292614e-01)*S27+(-4.107680e-01)*S28+9.977752e-01*S29'
.param V31='V31_part3+(-7.700674e-01)*S30+(-2.440281e-02)*S31+2.564307e-01*S32+1.000000e+04*S33+(-8.194695e-01)*S34+9.176249e-01*S35+6.840586e-01*S36'
.param V32_part1='(-3.521929e-01)*S0+(-6.062316e-01)*S1+(-3.294175e-03)*S2+(-5.026926e+03)*S3+1.239291e+00*S4+(-7.339912e+01)*S5+(-1.211152e+02)*S6+(-5.169713e+01)*S7+(-1.256154e+02)*S8+(-4.786081e+01)*S9'
.param V32_part2='V32_part1+1.621439e-01*S10+(-1.947757e+00)*S11+5.658718e-02*S12+(-3.580015e+00)*S13+1.104832e+00*S14+(-9.091701e-01)*S15+(-1.684917e+00)*S16+(-5.009641e-01)*S17+4.250120e-01*S18+4.709118e-01*S19'
.param V32_part3='V32_part2+2.021728e+00*S20+(-9.881392e+00)*S21+(-1.369285e+00)*S22+1.676508e+00*S23+7.669074e-01*S24+2.785887e+00*S25+2.725414e-01*S26+4.574314e-01*S27+6.716988e-01*S28+(-2.189088e+00)*S29'
.param V32='V32_part3+(-4.218831e-01)*S30+3.879153e-01*S31+8.138608e-01*S32+5.322916e+03*S33+2.006824e+00*S34+(-1.889875e+00)*S35+(-2.643946e+01)*S36'
.param V33_part1='(-4.146251e+01)*S0+(-4.007854e+01)*S1+(-1.032521e+02)*S2+0.000000e+00*S3+0.000000e+00*S4+0.000000e+00*S5+0.000000e+00*S6+0.000000e+00*S7+0.000000e+00*S8+(-5.079812e+00)*S9'
.param V33_part2='V33_part1+2.579271e+01*S10+(-4.216204e+02)*S11+5.709017e+01*S12+(-2.957257e+02)*S13+0.000000e+00*S14+0.000000e+00*S15+(-1.854066e+00)*S16+(-1.478990e+02)*S17+0.000000e+00*S18+0.000000e+00*S19'
.param V33_part3='V33_part2+4.631222e+01*S20+(-1.894504e+02)*S21+(-1.041988e+02)*S22+1.028942e+02*S23+(-2.442379e-01)*S24+0.000000e+00*S25+(-3.691279e+02)*S26+(-1.128350e+02)*S27+0.000000e+00*S28+0.000000e+00*S29'
.param V33='V33_part3+(-6.276574e+02)*S30+1.900447e+02*S31+0.000000e+00*S32+0.000000e+00*S33+0.000000e+00*S34+0.000000e+00*S35+3.420882e+01*S36'