//*Spectre Model Format
simulator lang=spectre  insensitive=yes

// *
// *  no part of this file can be released without the consent of smic.
// *
// *************************************************************************************************************
// *  40nm Logic Low Leakage 1P10M(1P9M,1P8M,1P7M,1P6M) Salicide 1.1V/1.8V/2.5V SPICE Model (for spectre only) *
// *************************************************************************************************************
// * 
// * Release version     : 1.4
// * 
// *  Release date       : 09/25/2012
// *
//  simulation tool      : Cadence spectre V6.2.1
// *
// * model type          :
// *   vertical  bjt     : spectre BJT
// *
// *  model name         :
// *
// *        *---------------------------------------------*
// *        |  n+/pwell/deepnwell bjt type  |    1.1V     |
// *        |=============================================|
// *        | emitter area: 10*10 um^2      | npn11a100ll |
// *        |---------------------------------------------|
// *
// *  the valid temperature range is from -40c to 125c
// *
// ****************************************************************************
// *    1.1v vertical n+/pwell/dnw bipolar model (emitter area=10x10um^2)    *
// ****************************************************************************
// *
model  npn11a100ll  bjt type = npn 
// **************************************************************
// *               GENERAL PARAMETERS 
// **************************************************************
+tnom    = 25            
// **************************************************************
// *               CAPACITANCE PARAMETERS 
// **************************************************************
+cjc     = (1.0843e-13+dcjc_npn11a100ll)  cje     = (1.4732e-13+dcje_npn11a100ll)  mjc     = 0.813276        mje     = 0.258409      
+vjc     = 1.300769        vje     = 0.458831      
+cjs     = 0               fc      = 0.75       mjs     = 0.5 
+vjs     = 0.75            xcjc    = 0.5             cbcp    = 0      
+cbep    = 0               ccsp    = 0               itf     = 0.1             ptf     = 0             
+tf      = 1e-010          tr      = 0               vtf     = 10              xtf     = 1             
// **************************************************************
// *               Noise PARAMETERS 
// **************************************************************
+af      = 1               kf      = 0             
// **************************************************************
// *               DC PARAMETERS 
// **************************************************************
+is      = (7.8919e-017+dis_npn11a100ll)  subs    = 1               rb      = 111.26          re      = 1.6665        
+irb     = 0.00536         rc      = 3.896           rbm     = 1.8414          bf      = (3.847+dbf_npn11a100ll)
+nf      = (1.0825+dnf_npn11a100ll)  vaf     = 113.23          ikf     = 0.021467        ise     = 8.4318e-016   
+ne      = 1.548           br      = 0.10571         nr      = 1.0942          var     = 37.5          
+ikr     = 0.026296        nkf     = 0.68            isc     = 2.4945e-017     nc      = 0.94331       
// **************************************************************
// *               TEMPERATURE PARAMETERS 
// **************************************************************
+xtb     = 0               xti     = 3               eg      = 1.16            bex     = 0             
+bexv    = 0               ctc     = 0.0010193       cte     = 0.00055752      cts     = 0             
+tlev    = 0               tlevc   = 1               tvjc    = 0.0013873       tvje    = 0.00079726    
+tvjs    = 0               tnf1    = 0.00047376      tnr1    = 0.00054278      tne1    = 0.00084407    
+tnc1    = 3.6855e-005     tbf1    = 0.004508        tbr1    = -0.0018573      tvaf1   = 0             
+tvar1   = 0               tikf1   = -0.0075783      tikr1   = 0               tns1    = 0             
+trb1    = 0               trc1    = 0               tre1    = 0               tirb1   = 0             
+trm1    = 0               tmjc1   = 0               tmje1   = 0               tmjs1   = 0             
+ttf1    = 0               titf1   = 0               ttr1    = 0               tnf2    = -3.8952e-007  
+tnr2    = -1.9307e-007    tne2    = 0               tbf2    = -2.864e-006     tbr2    = -2.0739e-005  
+tikf2   = 3.5768e-005     tikr2   = -1e-020         trb2    = 2.9495e-005     trc2    = 0             
//*
