//*Spectre Model Format
simulator lang=spectre  insensitive=yes

// *
// *  no part of this file can be released without the consent of smic.
// *
// *************************************************************************************************************
// *  40nm Logic Low Leakage 1P10M(1P9M,1P8M,1P7M,1P6M) Salicide 1.1V/1.8V/2.5V SPICE Model (for spectre only) *
// *************************************************************************************************************
// * 
// * Release version     : 1.4
// * 
// *  Release date       : 09/25/2012
// *
//  simulation tool      : Cadence spectre V6.2.1
// *
// * model type          :
// *   vertical  bjt     : spectre BJT
// *
// *  model name         :
// *
// *        *---------------------------------------------*
// *        |  n+/pwell/deepnwell bjt type  |    1.1V     |
// *        |=============================================|
// *        | emitter area: 5*5 um^2        | npn11a25ll  |
// *        *---------------------------------------------*
// *
// *  the valid temperature range is from -40c to 125c
// *
// ****************************************************************************
// *    1.1v vertical n+/pwell/dnw bipolar model (emitter area=5x5um^2)    *
// ****************************************************************************
// *
model  npn11a25ll_sba  bjt type = npn 
// **************************************************************
// *               GENERAL PARAMETERS 
// **************************************************************
+tnom    = 25            
// **************************************************************
// *               CAPACITANCE PARAMETERS 
// **************************************************************
+cjc     = (1.8227e-014+dcjc_npn11a25ll_sba)  cje     = (3.6831e-014+dcje_npn11a25ll_sba)  cjs     = 0               fc      = 0.75          
+mjc     = 0.813276        mje     = 0.258409        mjs     = 0.5             vjc     = 1.300769      
+vje     = 0.458831        vjs     = 0.75            xcjc    = 0.5             cbcp    = 0             
+cbep    = 0               ccsp    = 0               itf     = 0.1             ptf     = 0             
+tf      = 1e-010          tr      = 0               vtf     = 10              xtf     = 1             
// **************************************************************
// *               Noise PARAMETERS 
// **************************************************************
+af      = 1               kf      = 0             
// **************************************************************
// *               DC PARAMETERS 
// **************************************************************
+is      = (5.8853e-018+dis_npn11a25ll_sba)  rb      = 8.6546          re      = 26.629          irb     = 0.37997       
+rc      = 2.4881          rbm     = 2.3423          bf      = (3.8738+dbf_npn11a25ll_sba)  nf      = (1.0276+dnf_npn11a25ll_sba)
+vaf     = 96.302          ikf     = 0.010691        ise     = 2.1443e-015     ne      = 1.6748        
+br      = 0.06451         nr      = 1.0299          var     = 46.218          ikr     = 0.0428        
+nkf     = 0.5             isc     = 1.0072e-016     nc      = 1.3846        
// **************************************************************
// *               TEMPERATURE PARAMETERS 
// **************************************************************
+xtb     = 0               xti     = 3               eg      = 1.16            bex     = 0             
+bexv    = 0               ctc     = 0.0010193       cte     = 0.00055752      cts     = 0             
+tlev    = 0               tlevc   = 1               tvjc    = 0.0013873       tvje    = 0.00079726    
+tvjs    = 0               tnf1    = 0.00012281      tnr1    = 0.00012822      tne1    = 0.00069148    
+tnc1    = 0               tbf1    = 0.00457         tbr1    = -0.00032343     tvaf1   = 0             
+tvar1   = 0               tikf1   = -0.013888       tikr1   = 0               tns1    = 0             
+trb1    = -0.0028922      trc1    = 0               tre1    = 0               tirb1   = 0             
+trm1    = 0               tmjc1   = 0               tmje1   = 0               tmjs1   = 0             
+ttf1    = 0               titf1   = 0               ttr1    = 0               tnf2    = -4.8136e-007  
+tnr2    = 6.0612e-008     tne2    = 0               tbf2    = 1.6432e-006     tbr2    = 1.1334e-006   
+tikf2   = 8.6083e-005     tikr2   = -1e-020         trb2    = 0.00022878      trc2    = 0             
// *
