//*Spectre Model Format
simulator lang=spectre  insensitive=yes
// *
// *  no part of this file can be released without the consent of smic.
// *
// *************************************************************************************************************
// *  40nm Logic Low Leakage 1P10M(1P9M,1P8M,1P7M,1P6M) Salicide 1.1V/1.8V/2.5V SPICE Model (for spectre only) *
// *************************************************************************************************************
// * 
// * Release version     : 1.4
// * 
// *  Release date       : 09/25/2012
// *
// * simulation tool     : Cadence spectre V6.2.1
// *
// * model type          :
// *   vertical  bjt     : spectre BJT
// *
// *  model name         :
// *
// *        *---------------------------------------------*
// *        |  n+/pwell/deepnwell bjt type  |    1.1V     |
// *        |=============================================|
// *        | emitter area: 2*2 um^2        | npn11a4ll   |
// *        *---------------------------------------------*
// *
// *  the valid temperature range is from -40c to 125c
// *
// ****************************************************************************
// *    1.1v vertical n+/pwell/dnw bipolar model (emitter area=2x2um^2)    *
// ****************************************************************************
// *
model  npn11a4ll  bjt type = npn 
//**************************************************************
//*               GENERAL PARAMETERS 
//**************************************************************
+tnom    = 25            
//**************************************************************
//*               CAPACITANCE PARAMETERS 
//**************************************************************
+cjc     = (2.7108e-014+dcjc_npn11a4ll)  cje     = (5.8929e-015+dcje_npn11a4ll)  cjs     = 0               fc      = 0.75          
+mjc     = 0.813276        mje     = 0.258409        mjs     = 0.5             vjc     = 1.300769      
+vje     = 0.458831        vjs     = 0.75            xcjc    = 0.5             cbcp    = 0             
+cbep    = 0               ccsp    = 0               itf     = 0.1             ptf     = 0             
+tf      = 1e-010          tr      = 0               vtf     = 10              xtf     = 1             
//**************************************************************
//*               DC PARAMETERS 
//**************************************************************
+is      = (7.6845e-019+dis_npn11a4ll)  rb      = 4.4551          re      = 73.653          irb     = 0.40595       
+rc      = 2.4881          rbm     = 2.3423          bf      = (5.162+dbf_npn11a4ll)  nf      = (1.0095+dnf_npn11a4ll)
+vaf     = 102.58          ikf     = 0.0033507       ise     = 1.0128e-014     ne      = 1.8319        
+br      = 0.045646        nr      = 1.0075          var     = 33.25           ikr     = 0.020925      
+nkf     = 0.43788         isc     = 9.9306e-017     nc      = 1.0301        
//**************************************************************
//*               TEMPERATURE PARAMETERS 
//**************************************************************
+xtb     = 0               xti     = 3               eg      = 1.16            bex     = 0             
+bexv    = 0               ctc     = 0.0010193       cte     = 0.00055752      cts     = 0             
+tlev    = 0               tlevc   = 1               tvjc    = 0.0013873       tvje    = 0.00079726    
+tvjs    = 0               tnf1    = 2.9961e-005     tnr1    = 7.1146e-005     tne1    = 0.00031344    
+tnc1    = 0               tbf1    = 0.004672        tbr1    = 0.00010233      tvaf1   = 0             
+tvar1   = 0               tikf1   = -0.0094497      tikr1   = 0               tns1    = 0             
+trb1    = 0               trc1    = 0               tre1    = 0               tirb1   = 0             
+trm1    = 0               tmjc1   = 0               tmje1   = 0               tmjs1   = 0             
+ttf1    = 0               titf1   = 0               ttr1    = 0               tnf2    = -2.0375e-007  
+tnr2    = 6.6185e-008     tne2    = 3.331e-006      tbf2    = -3.7292e-006    tbr2    = -8.8856e-006  
+tikf2   = 3.2907e-005     tikr2   = 0               trb2    = 0               trc2    = 0             
//*
