//*Spectre Model Format
simulator lang=spectre  insensitive=yes

// *
// *  no part of this file can be released without the consent of smic.
// *
// *************************************************************************************************************
// *  40nm Logic Low Leakage 1P10M(1P9M,1P8M,1P7M,1P6M) Salicide 1.1V/1.8V/2.5V SPICE Model (for spectre only) *
// *************************************************************************************************************
// * 
// * Release version     : 1.4
// * 
// *  Release date       : 09/25/2012
// *
//  simulation tool      : Cadence spectre V6.2.1
// *
// * model type          :
// *   vertical  bjt     : spectre BJT
// *
// *  model name         :
// *
// *        *---------------------------------------------*
// *        |  n+/pwell/deepnwell bjt type  |     2.5v    |
// *        |=============================================|
// *        | emitter area: 2*2 um^2        | npn25a4ll   |
// *        *---------------------------------------------*
// *
// *  the valid temperature range is from -40c to 125c
// *
// ****************************************************************************
// *    2.5v vertical n+/pwell/dnw bipolar model (emitter area=2x2um^2)    *
// ****************************************************************************
// *
model  npn25a4ll_sba  bjt type = npn 
// **************************************************************
// *               GENERAL PARAMETERS 
// **************************************************************
+tnom    = 25            
// **************************************************************
// *               CAPACITANCE PARAMETERS 
// **************************************************************
+cjc     = (5.3681e-015+dcjc_npn25a4ll_sba)  cje     = (5.2884e-015+dcje_npn25a4ll_sba)  cjs     = 0               fc      = 0.75          
+mjc     = 0.813276        mje     = 0.236285        mjs     = 0.5             vjc     = 1.300769      
+vje     = 0.583233        vjs     = 0.75            xcjc    = 0.5             cbcp    = 0             
+cbep    = 0               ccsp    = 0               itf     = 0.1             ptf     = 0             
+tf      = 1e-010          tr      = 0               vtf     = 10              xtf     = 1             
// **************************************************************
// *               Noise PARAMETERS 
// **************************************************************
+af      = 1               kf      = 0             
// **************************************************************
// *               DC PARAMETERS 
// **************************************************************
+is      = (7.2624e-019+dis_npn25a4ll_sba)  rb      = 39.294          re      = 39.026          irb     = 0.62021       
+rc      = 1.5096          rbm     = 2               bf      = (4.439+dbf_npn25a4ll_sba)  nf      = (1.0095+dnf_npn25a4ll_sba)
+vaf     = 95.221          ikf     = 0.013047        ise     = 8.3054e-017     ne      = 1.4407        
+br      = 0.18415         nr      = 1.01            var     = 36.24           ikr     = 0.054673      
+nkf     = 0.8692          isc     = 2.4992e-017     nc      = 1.0314        
// **************************************************************
// *               TEMPERATURE PARAMETERS 
// **************************************************************
+xtb     = 0               xti     = 3               eg      = 1.16            bex     = 0             
+bexv    = 0               ctc     = 0.0010193       cte     = 0.00080752      cts     = 0             
+tlev    = 0               tlevc   = 1               tvjc    = 0.0013873       tvje    = 0.0015785     
+tvjs    = 0               tnf1    = 6.6715e-006     tnr1    = 7.8091e-005     tne1    = 9.6705e-005   
+tnc1    = 0               tbf1    = 0.0050781       tbr1    = 0               tvaf1   = 0             
+tvar1   = 0               tikf1   = -0.0058601      tikr1   = 0               tns1    = 0             
+trb1    = 0               trc1    = 0               tre1    = 0               tirb1   = 0             
+trm1    = 0               tmjc1   = 0               tmje1   = 0               tmjs1   = 0             
+ttf1    = 0               titf1   = 0               ttr1    = 0               tnf2    = 6.4873e-008   
+tnr2    = 2.8414e-007     tne2    = -1.385e-006     tbf2    = 2.5466e-006     tbr2    = -2.0029e-006  
+tikf2   = 2.8885e-005     tikr2   = -1e-020         trb2    = -5.112e-005     trc2    = 0             
// *
