//*Spectre Model Format
simulator lang=spectre  insensitive=yes

// *
// *  no part of this file can be released without the consent of smic.
// *
// *************************************************************************************************************
// *  40nm Logic Low Leakage 1P10M(1P9M,1P8M,1P7M,1P6M) Salicide 1.1V/1.8V/2.5V SPICE Model (for spectre only) *
// *************************************************************************************************************
// * 
// * Release version     : 1.4
// * 
// *  Release date       : 09/25/2012
// *
//  simulation tool      : Cadence spectre V6.2.1
// *
// * model type          :
// *   vertical  bjt     : spectre BJT
// *
// *  model name         :
// *
// *        *---------------------------------------------*
// *        |  n+/pwell/deepnwell bjt type  |     2.5v    |
// *        |=============================================|
// *        | emitter area: 10*10 um^2      | npn25a100ll |
// *        *---------------------------------------------*
// *
// *  the valid temperature range is from -40c to 125c
// *
// ****************************************************************************
// *    2.5v vertical n+/pwell/dnw bipolar model (emitter area=10x10um^2)    *
// ****************************************************************************
// *
model  npn25a100ll_sba  bjt type = npn 
// **************************************************************
// *               GENERAL PARAMETERS 
// **************************************************************
+tnom    = 25            
// **************************************************************
// *               CAPACITANCE PARAMETERS 
// **************************************************************
+cjc     = (5.6602e-014+dcjc_npn25a100ll_sba)  cje     = (1.3221e-013+dcje_npn25a100ll_sba)  cjs     = 0               fc      = 0.75          
+mjc     = 0.813276        mje     = 0.236285        mjs     = 0.5             vjc     = 1.300769      
+vje     = 0.583233        vjs     = 0.75            xcjc    = 0.5             cbcp    = 0             
+cbep    = 0               ccsp    = 0               itf     = 0.1             ptf     = 0             
+tf      = 1e-010          tr      = 0               vtf     = 10              xtf     = 1             
// **************************************************************
// *               Noise PARAMETERS 
// **************************************************************
+af      = 1               kf      = 0             
// **************************************************************
// *               DC PARAMETERS 
// **************************************************************
+is      = (3.287e-017+dis_npn25a100ll_sba)  rb      = 38.015          re      = 13.332          irb     = 0.66369       
+rc      = 1.6549          rbm     = 1.9138          bf      = (3.598+dbf_npn25a100ll_sba)  nf      = (1.0431+dnf_npn25a100ll_sba)
+vaf     = 142.68          ikf     = 0.066621        ise     = 3.8491e-016     ne      = 1.365         
+br      = 0.082429        nr      = 1.0509          var     = 34.58           ikr     = 0.054673      
+nkf     = 1.06            isc     = 5.5555e-019     nc      = 1.1009        
// **************************************************************
// *               TEMPERATURE PARAMETERS 
// **************************************************************
+xtb     = 0               xti     = 3               eg      = 1.16            bex     = 0             
+bexv    = 0               ctc     = 0.0010193       cte     = 0.00080752      cts     = 0             
+tlev    = 0               tlevc   = 1               tvjc    = 0.0013873       tvje    = 0.0015785     
+tvjs    = 0               tnf1    = 0.00014901      tnr1    = 0.00028861      tne1    = 0.00028179    
+tnc1    = 0               tbf1    = 0.0049389       tbr1    = -0.00038136     tvaf1   = 0             
+tvar1   = 0               tikf1   = -0.010123       tikr1   = 0               tns1    = 0             
+trb1    = 0               trc1    = 0               tre1    = 0.001207        tirb1   = 0             
+trm1    = 0               tmjc1   = 0               tmje1   = 0               tmjs1   = 0             
+ttf1    = 0               titf1   = 0               ttr1    = 0               tnf2    = -5.5676e-007  
+tnr2    = -2.9919e-007    tne2    = -3.696e-006     tbf2    = 9.6759e-006     tbr2    = 1.2655e-006   
+tikf2   = 6.4405e-005     tikr2   = -1e-020         trb2    = 2e-005          trc2    = 0             
// *
