//*Spectre Model Format
simulator lang=spectre  insensitive=yes

// *
// *  no part of this file can be released without the consent of smic.
// *
// *************************************************************************************************************
// *  40nm Logic Low Leakage 1P10M(1P9M,1P8M,1P7M,1P6M) Salicide 1.1V/1.8V/2.5V SPICE Model (for spectre only) *
// *************************************************************************************************************
// * 
// * Release version     : 1.4
// * 
// *  Release date       : 09/25/2012
// *
//  simulation tool      : Cadence spectre V6.2.1
// *
// * model type          :
// *   vertical  bjt     : spectre BJT
// *
// *  model name         :
// *
// *        *---------------------------------------------*
// *        |  n+/pwell/deepnwell bjt type  |     2.5v    |
// *        |=============================================|
// *        | emitter area: 5*5 um^2        | npn25a25ll  |
// *        *---------------------------------------------*
// *
// *  the valid temperature range is from -40c to 125c
// *
// ****************************************************************************
// *    2.5v vertical n+/pwell/dnw bipolar model (emitter area=5x5um^2)    *
// ****************************************************************************
// *
model  npn25a25ll  bjt type = npn 
// **************************************************************
// *               GENERAL PARAMETERS 
// **************************************************************
+tnom    = 25            
// **************************************************************
// *               CAPACITANCE PARAMETERS 
// **************************************************************
+cjc     = (5.1251e-014+dcjc_npn25a25ll)  cje     = (3.3052e-014+dcje_npn25a25ll)  cjs     = 0               fc      = 0.75          
+mjc     = 0.813276        mje     = 0.236285        mjs     = 0.5             vjc     = 1.300769      
+vje     = 0.583233        vjs     = 0.75            xcjc    = 0.5             cbcp    = 0             
+cbep    = 0               ccsp    = 0               itf     = 0.1             ptf     = 0             
+tf      = 1e-010          tr      = 0               vtf     = 10              xtf     = 1             
// **************************************************************
// *               Noise PARAMETERS 
// **************************************************************
+af      = 1               kf      = 0             
// **************************************************************
// *               DC PARAMETERS 
// **************************************************************
+is      = (4.3899e-018+dis_npn25a25ll)  rb      = 16.098          re      = 32.774          irb     = 0.66369       
+rc      = 4.6492          rbm     = 2               bf      = (4.0376+dbf_npn25a25ll)  nf      = (1.0112+dnf_npn25a25ll)
+vaf     = 128.54          ikf     = 0.026506        ise     = 1.0502e-016     ne      = 1.3705        
+br      = 0.027306        nr      = 1.0082          var     = 34.593          ikr     = 0.06517       
+nkf     = 1.06            isc     = 2.4755e-016     nc      = 1.4314        
// **************************************************************
// *               TEMPERATURE PARAMETERS 
// **************************************************************
+xtb     = 0               xti     = 3               eg      = 1.16            bex     = 0             
+bexv    = 0               ctc     = 0.0010193       cte     = 0.00080752      cts     = 0             
+tlev    = 0               tlevc   = 1               tvjc    = 0.0013873       tvje    = 0.0015785     
+tvjs    = 0               tnf1    = 1.5183e-006     tnr1    = -2.1356e-006    tne1    = 0.00025499    
+tnc1    = 0               tbf1    = 0.0049521       tbr1    = -0.00040217     tvaf1   = 0             
+tvar1   = 0               tikf1   = -0.0071856      tikr1   = 0               tns1    = 0             
+trb1    = 0               trc1    = 0               tre1    = 0               tirb1   = 0             
+trm1    = 0               tmjc1   = 0               tmje1   = 0               tmjs1   = 0             
+ttf1    = 0               titf1   = 0               ttr1    = 0               tnf2    = -1.8692e-007  
+tnr2    = 1.0676e-006     tne2    = -4.7399e-006    tbf2    = 9.755e-006      tbr2    = 2.184e-006    
+tikf2   = 4.0143e-005     tikr2   = -1e-020         trb2    = 0               trc2    = 0             
// *
