//*Spectre Model Format
simulator lang=spectre  insensitive=yes

// *
// *  no part of this file can be released without the consent of smic.
// *
// *************************************************************************************************************
// *  40nm Logic Low Leakage 1P10M(1P9M,1P8M,1P7M,1P6M) Salicide 1.1V/1.8V/2.5V SPICE Model (for spectre only) *
// *************************************************************************************************************
// * 
// * Release version     : 1.4
// * 
// *  Release date       : 09/25/2012
// *
//  simulation tool      : Cadence spectre V6.2.1
// *
// * model type          :
// *   vertical  bjt     : spectre BJT
// *
// *  model name         :
// *
// *        *---------------------------------------------*
// *        |  n+/pwell/deepnwell bjt type  |     2.5v    |
// *        |=============================================|
// *        | emitter area: 2*2 um^2        | npn25a4ll   |
// *        *---------------------------------------------*
// *
// *  the valid temperature range is from -40c to 125c
// *
// ****************************************************************************
// *    2.5v vertical n+/pwell/dnw bipolar model (emitter area=2x2um^2)    *
// ****************************************************************************
// *
model  npn25a4ll  bjt type = npn 
// **************************************************************
// *               GENERAL PARAMETERS 
// **************************************************************
+tnom    = 25            
// **************************************************************
// *               CAPACITANCE PARAMETERS 
// **************************************************************
+cjc     = (2.7108e-014+dcjc_npn25a4ll)  cje     = (5.2884e-015+dcje_npn25a4ll)  cjs     = 0               fc      = 0.75          
+mjc     = 0.813276        mje     = 0.236285        mjs     = 0.5             vjc     = 1.300769      
+vje     = 0.583233        vjs     = 0.75            xcjc    = 0.5             cbcp    = 0             
+cbep    = 0               ccsp    = 0               itf     = 0.1             ptf     = 0             
+tf      = 1e-010          tr      = 0               vtf     = 10              xtf     = 1             
// **************************************************************
// *               Noise PARAMETERS 
// **************************************************************
+af      = 1               kf      = 0             
// **************************************************************
// *               DC PARAMETERS 
// **************************************************************
+is      = (7.8104e-019+dis_npn25a4ll)  rb      = 86.778          re      = 49.549          irb     = 0.59068       
+rc      = 1.5096          rbm     = 2               bf      = (5.2208+dbf_npn25a4ll)  nf      = (1.0093+dnf_npn25a4ll)
+vaf     = 101.32          ikf     = 0.014394        ise     = 2.9991e-018     ne      = 1.2157        
+br      = 0.065119        nr      = 1.01            var     = 34.58           ikr     = 0.054673      
+nkf     = 0.8692          isc     = 1.2496e-016     nc      = 1.0335        
// **************************************************************
// *               TEMPERATURE PARAMETERS 
// **************************************************************
+xtb     = 0               xti     = 3               eg      = 1.16            bex     = 0             
+bexv    = 0               ctc     = 0.0010193       cte     = 0.00080752      cts     = 0             
+tlev    = 0               tlevc   = 1               tvjc    = 0.0013873       tvje    = 0.0015785     
+tvjs    = 0               tnf1    = 2.9804e-005     tnr1    = 8.7939e-005     tne1    = 0.00033259    
+tnc1    = 0               tbf1    = 0.0039491       tbr1    = 0               tvaf1   = 0             
+tvar1   = 0               tikf1   = -0.0074787      tikr1   = 0               tns1    = 0             
+trb1    = 0               trc1    = 0               tre1    = -0.0030261      tirb1   = 0             
+trm1    = 0               tmjc1   = 0               tmje1   = 0               tmjs1   = 0             
+ttf1    = 0               titf1   = 0               ttr1    = 0               tnf2    = -2.3744e-007  
+tnr2    = 2.2241e-007     tne2    = -2.7345e-006    tbf2    = 1.5607e-005     tbr2    = -8.5503e-007  
+tikf2   = 2.1519e-005     tikr2   = -1e-020         trb2    = 1.2782e-005     trc2    = 0             
// *
