//*Spectre Model Format
simulator lang=spectre  insensitive=yes

// *
// *  no part of this file can be released without the consent of smic.
// *
// *************************************************************************************************************
// *  40nm Logic Low Leakage 1P10M(1P9M,1P8M,1P7M,1P6M) Salicide 1.1V/1.8V/2.5V SPICE Model (for spectre only) *
// *************************************************************************************************************
// * 
// * Release version     : 1.4
// * 
// *  Release date       : 09/25/2012
// *
//  simulation tool      : Cadence spectre V6.2.1
// *
// * model type          :
// *   vertical  bjt     : spectre BJT
// *
// *  model name         :
// *
// *        *---------------------------------------------*
// *        |  p+/nwell/psub bjt type       |    1.1V     |
// *        |=============================================|
// *        | emitter area: 5*5 um^2        | pnp11a25ll  |
// *        |---------------------------------------------|
// *
// *  the valid temperature range is from -40c to 125c
// *
// ****************************************************************************
// *    1.1v vertical p+/nwell/psub bipolar model (emitter area=5x5um^2)    *
// ****************************************************************************
// *
model  pnp11a25ll  bjt type = pnp 
// **************************************************************
// *               GENERAL PARAMETERS 
// **************************************************************
+tnom    = 25            
// **************************************************************
// *               CAPACITANCE PARAMETERS 
// **************************************************************
+cjc     = (4.7559e-014+dcjc_pnp11a25ll)  cje     = (3.5252e-014+dcje_pnp11a25ll)  cjs     = 0               fc      = 0.75          
+mjc     = 0.182957        mje     = 0.358642        mjs     = 0.5             vjc     = 0.58343       
+vje     = 0.789952        vjs     = 0.75            xcjc    = 0.5             cbcp    = 0             
+cbep    = 0               ccsp    = 0               itf     = 0.1             ptf     = 0             
+tf      = 1e-010          tr      = 0               vtf     = 10              xtf     = 1             
// **************************************************************
// *               Noise PARAMETERS 
// **************************************************************
+af      = 1               kf      = 0             
// **************************************************************
// *               DC PARAMETERS 
// **************************************************************
+is      = (1.4697e-018+dis_pnp11a25ll)  rb      = 97.121          re      = 9.3211          irb     = 0.0055        
+rc      = 9.04            rbm     = 2               bf      = (0.56965+dbf_pnp11a25ll)  nf      = (0.99581+dnf_pnp11a25ll)
+vaf     = 164.56          ikf     = 0.012414        ise     = 4.4653e-017     ne      = 1.2825        
+br      = 0.0079921       nr      = 0.997           var     = 44.6            ikr     = 0.005         
+nkf     = 0.5             isc     = 1.8272e-013     nc      = 1.4304        
// **************************************************************
// *               TEMPERATURE PARAMETERS 
// **************************************************************
+xtb     = 0               xti     = 3               eg      = 1.16            bex     = 0             
+bexv    = 0               ctc     = 0.0014393       cte     = 0.00070724      cts     = 0             
+tlev    = 0               tlevc   = 1               tvjc    = 0.00016652      tvje    = 0.0013066     
+tvjs    = 0               tnf1    = -3.1684e-005    tnr1    = 1.6984e-005     tne1    = 0.00051915    
+tnc1    = 0               tbf1    = 0.0038957       tbr1    = -0.0016912      tvaf1   = 0             
+tvar1   = 0               tikf1   = -0.0095368      tikr1   = 0               tns1    = 0             
+trb1    = 0               trc1    = 0               tre1    = 9.84e-005       tirb1   = 0             
+trm1    = 0               tmjc1   = 0               tmje1   = 0               tmjs1   = 0             
+ttf1    = 0               titf1   = 0               ttr1    = 0               tnf2    = -4.5208e-008  
+tnr2    = -1.9667e-006    tne2    = 0               tbf2    = -5.2741e-008    tbr2    = -8.4104e-006  
+tikf2   = 4.1196e-005     tikr2   = -1e-020         trb2    = 1.9999e-006     trc2    = 0             
// *
