//*Spectre Model Format
simulator lang=spectre  insensitive=yes

// *
// *  no part of this file can be released without the consent of smic.
// *
// *************************************************************************************************************
// *  40nm Logic Low Leakage 1P10M(1P9M,1P8M,1P7M,1P6M) Salicide 1.1V/1.8V/2.5V SPICE Model (for spectre only) *
// *************************************************************************************************************
// * 
// * Release version     : 1.4
// * 
// *  Release date       : 09/25/2012
// *
//  simulation tool      : Cadence spectre V6.2.1
// *
// * model type          :
// *   vertical  bjt     : spectre BJT
// *
// *  model name         :
// *
// *        *---------------------------------------------*
// *        |  p+/nwell/psub bjt type       |    1.1V     |
// *        |=============================================|
// *        | emitter area: 10*10 um^2      | pnp11a100ll |
// *        *---------------------------------------------*
// *
// *  the valid temperature range is from -40c to 125c
// *
// ****************************************************************************
// *    1.1v vertical p+/nwell/psub bipolar model (emitter area=10x10um^2)    *
// ****************************************************************************
// *
model  pnp11a100ll_sba  bjt type = pnp 
// **************************************************************
// *               GENERAL PARAMETERS 
// **************************************************************
+tnom    = 25            
// **************************************************************
// *               CAPACITANCE PARAMETERS 
// **************************************************************
+cjc     = (5.2524e-014+dcjc_pnp11a100ll_sba)  cje     = (1.4101e-013+dcje_pnp11a100ll_sba)  cjs     = 0               fc      = 0.75          
+mjc     = 0.182957        mje     = 0.358642        mjs     = 0.5             vjc     = 0.58343       
+vje     = 0.789952        vjs     = 0.75            xcjc    = 0.5             cbcp    = 0             
+cbep    = 0               ccsp    = 0               itf     = 0.1             ptf     = 0             
+tf      = 1e-010          tr      = 0               vtf     = 10              xtf     = 1             
// **************************************************************
// *               Noise PARAMETERS 
// **************************************************************
+af      = 1               kf      = 0             
// **************************************************************
// *               DC PARAMETERS 
// **************************************************************
+is      = (5.6606e-018+dis_pnp11a100ll_sba)  rb      = 68.596          re      = 1.9578          irb     = 0.0055        
+rc      = 9.1846          rbm     = 2               bf      = (0.50324+dbf_pnp11a100ll_sba)  nf      = (0.99639+dnf_pnp11a100ll_sba)
+vaf     = 258.41          ikf     = 0.035347        ise     = 1.3774e-018     ne      = 1.1554        
+br      = 0.021888        nr      = 0.99607         var     = 44.6            ikr     = 0.005         
+nkf     = 0.5             isc     = 2.9002e-014     nc      = 1.2276        
// **************************************************************
// *               TEMPERATURE PARAMETERS 
// **************************************************************
+xtb     = 0               xti     = 3               eg      = 1.16            bex     = 0             
+bexv    = 0               ctc     = 0.0014393       cte     = 0.00070724      cts     = 0             
+tlev    = 0               tlevc   = 1               tvjc    = 0.00016652      tvje    = 0.0013066     
+tvjs    = 0               tnf1    = -3.8354e-005    tnr1    = 0.00013946      tne1    = 0.00075       
+tnc1    = 0               tbf1    = 0.004005        tbr1    = 0               tvaf1   = 0             
+tvar1   = 0               tikf1   = -0.009079       tikr1   = 0               tns1    = 0             
+trb1    = 0               trc1    = 0               tre1    = 0               tirb1   = 0             
+trm1    = 0               tmjc1   = 0               tmje1   = 0               tmjs1   = 0             
+ttf1    = 0               titf1   = 0               ttr1    = 0               tnf2    = 7.5606e-008   
+tnr2    = -6.7223e-007    tne2    = 0               tbf2    = -1.0706e-006    tbr2    = 0             
+tikf2   = 2.374e-005      tikr2   = 0               trb2    = 1.688e-005      trc2    = 0             
// *
