//*Spectre Model Format
simulator lang=spectre  insensitive=yes

// *
// *  no part of this file can be released without the consent of smic.
// *
// *************************************************************************************************************
// *  40nm Logic Low Leakage 1P10M(1P9M,1P8M,1P7M,1P6M) Salicide 1.1V/1.8V/2.5V SPICE Model (for spectre only) *
// *************************************************************************************************************
// * 
// * Release version     : 1.4
// * 
// *  Release date       : 09/25/2012
// *
//  simulation tool      : Cadence spectre V6.2.1
// *
// * model type          :
// *   vertical  bjt     : spectre BJT
// *
// *  model name         :
// *
// *        *---------------------------------------------*
// *        |  p+/nwell/psub bjt type       |    1.1V     |
// *        |=============================================|
// *        | emitter area: 5*5 um^2        | pnp11a25ll  |
// *        |---------------------------------------------|
// *
// *  the valid temperature range is from -40c to 125c
// *
// ****************************************************************************
// *    1.1v vertical p+/nwell/psub bipolar model (emitter area=5x5um^2)    *
// ****************************************************************************
// *
model  pnp11a25ll_sba  bjt type = pnp 
// **************************************************************
// *               GENERAL PARAMETERS 
// **************************************************************
+tnom    = 25            
// **************************************************************
// *               CAPACITANCE PARAMETERS 
// **************************************************************
+cjc     = (1.6914e-014+dcjc_pnp11a25ll_sba)  cje     = (3.5252e-014+dcje_pnp11a25ll_sba)  cjs     = 0               fc      = 0.75          
+mjc     = 0.182957        mje     = 0.358642        mjs     = 0.5             vjc     = 0.58343       
+vje     = 0.789952        vjs     = 0.75            xcjc    = 0.5             cbcp    = 0             
+cbep    = 0               ccsp    = 0               itf     = 0.1             ptf     = 0             
+tf      = 1e-010          tr      = 0               vtf     = 10              xtf     = 1             
// **************************************************************
// *               Noise PARAMETERS 
// **************************************************************
+af      = 1               kf      = 0             
// **************************************************************
// *               DC PARAMETERS 
// **************************************************************
+is      = (1.5311e-018+dis_pnp11a25ll_sba)  rb      = 3.5664          re      = 29.066          irb     = 0.13274       
+rc      = 4.1281          rbm     = 2               bf      = (0.5338+dbf_pnp11a25ll_sba)  nf      = (1.0003+dnf_pnp11a25ll_sba)
+vaf     = 223.8           ikf     = 0.022498        ise     = 4.9417e-017     ne      = 1.574         
+br      = 0.0060032       nr      = 0.988           var     = 35.87           ikr     = 0.00856       
+nkf     = 0.5             isc     = 1.8689e-016     nc      = 1.4161        
// **************************************************************
// *               TEMPERATURE PARAMETERS 
// **************************************************************
+xtb     = 0               xti     = 3               eg      = 1.16            bex     = 0             
+bexv    = 0               ctc     = 0.0014393       cte     = 0.00070724      cts     = 0             
+tlev    = 0               tlevc   = 1               tvjc    = 0.00016652      tvje    = 0.0013066     
+tvjs    = 0               tnf1    = 2.1774e-005     tnr1    = 1.3927e-005     tne1    = 0.00080282    
+tnc1    = 0               tbf1    = 0.004173        tbr1    = -0.0025135      tvaf1   = 0             
+tvar1   = -6e-012         tikf1   = -0.009279       tikr1   = 0               tns1    = 0             
+trb1    = 0               trc1    = 0               tre1    = 0               tirb1   = 0             
+trm1    = 0               tmjc1   = 0               tmje1   = 0               tmjs1   = 0             
+ttf1    = 0               titf1   = 0               ttr1    = 0               tnf2    = -9.7469e-007  
+tnr2    = -1.9667e-006    tne2    = 3.0426e-007     tbf2    = -1.4604e-006    tbr2    = 1.6066e-005   
+tikf2   = 2.4954e-005     tikr2   = -1.02e-020      trb2    = 0.00034639      trc2    = 0             
// *
