//*Spectre Model Format
simulator lang=spectre  insensitive=yes

// *
// *  no part of this file can be released without the consent of smic.
// *
// *************************************************************************************************************
// *  40nm Logic Low Leakage 1P10M(1P9M,1P8M,1P7M,1P6M) Salicide 1.1V/1.8V/2.5V SPICE Model (for spectre only) *
// *************************************************************************************************************
// * 
// * Release version     : 1.4
// * 
// *  Release date       : 09/25/2012
// *
//  simulation tool      : Cadence spectre V6.2.1
// *
// * model type          :
// *   vertical  bjt     : spectre BJT
// *
// *  model name         :
// *        *----------------------------------------------*
// *        |  p+/nwell/psub bjt type       |      2.5v    |
// *        |==============================================|
// *        | emitter area: 5*5 um^2        |  pnp25a25ll  |
// *        *----------------------------------------------*
// *
// *  the valid temperature range is from -40c to 125c
// *
// ****************************************************************************
// *    2.5v vertical p+/nwell/psub bipolar model (emitter area=5x5um^2)    *
// ****************************************************************************
// *
model  pnp25a25ll_sba  bjt type = pnp 
// **************************************************************
// *               GENERAL PARAMETERS 
// **************************************************************
+tnom    = 25            
// **************************************************************
// *               CAPACITANCE PARAMETERS 
// **************************************************************
+cjc     = (1.6914e-014+dcjc_pnp25a25ll_sba)  cje     = (3.0819e-014+dcje_pnp25a25ll_sba)  cjs     = 0               fc      = 0.75          
+mjc     = 0.182957        mje     = 0.316785        mjs     = 0.5             vjc     = 0.58343       
+vje     = 0.728959        vjs     = 0.75            xcjc    = 0.5             cbcp    = 0             
+cbep    = 0               ccsp    = 0               itf     = 0.1             ptf     = 0             
+tf      = 1e-010          tr      = 0               vtf     = 10              xtf     = 1             
// **************************************************************
// *               Noise PARAMETERS 
// **************************************************************
+af      = 1               kf      = 0             
// **************************************************************
// *               DC PARAMETERS 
// **************************************************************
+is      = (1.9353e-018+dis_pnp25a25ll_sba)  rb      = 76.467          re      = 1.2805          irb     = 0.0055        
+rc      = 1.6055          rbm     = 2               bf      = (0.878+dbf_pnp25a25ll_sba)  nf      = (1.0059+dnf_pnp25a25ll_sba)
+vaf     = 383.91          ikf     = 0.0072409       ise     = 3.1477e-015     ne      = 2.2434        
+br      = 1.3652          nr      = 1.0118          var     = 49.595          ikr     = 0.005         
+nkf     = 0.5             isc     = 1.8329e-014     nc      = 1.2297        
// **************************************************************
// *               TEMPERATURE PARAMETERS 
// **************************************************************
+xtb     = 0               xti     = 3               eg      = 1.16            bex     = 0             
+bexv    = 0               ctc     = 0.0014393       cte     = 0.0008479       cts     = 0             
+tlev    = 0               tlevc   = 1               tvjc    = 0.00016652      tvje    = 0.0016593     
+tvjs    = 0               tnf1    = 2.6361e-005     tnr1    = 0.00014569      tne1    = -8.551e-005   
+tnc1    = -2.9852e-005    tbf1    = 0.003776        tbr1    = 0               tvaf1   = 0             
+tvar1   = 0               tikf1   = -0.0066572      tikr1   = 0               tns1    = 0             
+trb1    = 0               trc1    = 0               tre1    = 0               tirb1   = 0             
+trm1    = 0               tmjc1   = 0               tmje1   = 0               tmjs1   = 0             
+ttf1    = 0               titf1   = 0               ttr1    = 0               tnf2    = -2.0826e-007  
+tnr2    = 2.8387e-007     tne2    = 0               tbf2    = -2.2902e-007    tbr2    = 0             
+tikf2   = 2.5051e-005     tikr2   = 0               trb2    = 1.6e-005        trc2    = 0             
// *
