//*Spectre Model Format
simulator lang=spectre  insensitive=yes

// *
// *  no part of this file can be released without the consent of smic.
// *
// *************************************************************************************************************
// *  40nm Logic Low Leakage 1P10M(1P9M,1P8M,1P7M,1P6M) Salicide 1.1V/1.8V/2.5V SPICE Model (for spectre only) *
// *************************************************************************************************************
// * 
// * Release version     : 1.4
// * 
// *  Release date       : 09/25/2012
// *
//  simulation tool      : Cadence spectre V6.2.1
// *
// * model type          :
// *   vertical  bjt     : spectre BJT
// *
// *  model name         :
// *
// *        *---------------------------------------------*
// *        |  p+/nwell/psub bjt type       |     2.5v    |
// *        |=============================================|
// *        | emitter area: 2*2 um^2        |  pnp25a4ll  |
// *        *---------------------------------------------*
// *
// *  the valid temperature range is from -40c to 125c
// *
// ****************************************************************************
// *    2.5v vertical p+/nwell/psub bipolar model (emitter area=2x2um^2)    *
// ****************************************************************************
// *
model  pnp25a4ll_sba  bjt type = pnp 
// **************************************************************
// *               GENERAL PARAMETERS 
// **************************************************************
+tnom    = 25            
// **************************************************************
// *               CAPACITANCE PARAMETERS 
// **************************************************************
+cjc     = (4.9813e-015+dcjc_pnp25a4ll_sba)  cje     = (4.9311e-015+dcje_pnp25a4ll_sba)  cjs     = 0               fc      = 0.75          
+mjc     = 0.182957        mje     = 0.316785        mjs     = 0.5             vjc     = 0.58343       
+vje     = 0.728959        vjs     = 0.75            xcjc    = 0.5             cbcp    = 0             
+cbep    = 0               ccsp    = 0               itf     = 0.1             ptf     = 0             
+tf      = 1e-010          tr      = 0               vtf     = 10              xtf     = 1             
// **************************************************************
// *               Noise PARAMETERS 
// **************************************************************
+af      = 1               kf      = 0             
// **************************************************************
// *               DC PARAMETERS 
// **************************************************************
+is      = (3.7017e-019+dis_pnp25a4ll_sba)  rb      = 103.22          re      = 1.0462          irb     = 0.0055        
+rc      = 1.9237          rbm     = 2               bf      = (1.0474+dbf_pnp25a4ll_sba)  nf      = (1.0089+dnf_pnp25a4ll_sba)
+vaf     = 263.15          ikf     = 0.0032829       ise     = 2.5475e-016     ne      = 2.5959        
+br      = 0.0093298       nr      = 1.0057          var     = 44.6            ikr     = 0.005         
+nkf     = 0.5             isc     = 2.6108e-015     nc      = 1.1821        
// **************************************************************
// *               TEMPERATURE PARAMETERS 
// **************************************************************
+xtb     = 0               xti     = 3               eg      = 1.16            bex     = 0             
+bexv    = 0               ctc     = 0.0014393       cte     = 0.0008479       cts     = 0             
+tlev    = 0               tlevc   = 1               tvjc    = 0.00016652      tvje    = 0.0016593     
+tvjs    = 0               tnf1    = 4.36e-005       tnr1    = 0.00012449      tne1    = 0.0033116     
+tnc1    = -7.2763e-005    tbf1    = 0.003931        tbr1    = -0.00095431     tvaf1   = 0             
+tvar1   = 0               tikf1   = -0.0092652      tikr1   = 0               tns1    = 0             
+trb1    = -4.2094e-006    trc1    = 0               tre1    = 0               tirb1   = 0             
+trm1    = 0               tmjc1   = 0               tmje1   = 0               tmjs1   = 0             
+ttf1    = 0               titf1   = 0               ttr1    = 0               tnf2    = -3.7862e-007  
+tnr2    = 5.9715e-007     tne2    = 0               tbf2    = 2.7977e-007     tbr2    = 1.7073e-005   
+tikf2   = 4.3312e-005     tikr2   = -1e-020         trb2    = 4.5452e-006     trc2    = 0             
// *
