//*Spectre Model Format
simulator lang=spectre  insensitive=yes

// *
// *  no part of this file can be released without the consent of smic.
// *
// *************************************************************************************************************
// *  40nm Logic Low Leakage 1P10M(1P9M,1P8M,1P7M,1P6M) Salicide 1.1V/1.8V/2.5V SPICE Model (for spectre only) *
// *************************************************************************************************************
// * 
// * Release version     : 1.4
// * 
// *  Release date       : 09/25/2012
// *
//  simulation tool      : Cadence spectre V6.2.1
// *
// * model type          :
// *   vertical  bjt     : spectre BJT
// *
// *  model name         :
// *
// *        *----------------------------------------------*
// *        |  p+/nwell/psub bjt type       |      2.5v    |
// *        |==============================================|
// *        | emitter area: 10*10 um^2      |  pnp25a100ll |
// *        *----------------------------------------------*
// *
// *  the valid temperature range is from -40c to 125c
// *
// ****************************************************************************
// *    2.5v vertical p+/nwell/psub bipolar model (emitter area=10x10um^2)    *
// ****************************************************************************
// *
model  pnp25a100ll  bjt type = pnp 
// **************************************************************
// *               GENERAL PARAMETERS 
// **************************************************************
+tnom    = 25            
// **************************************************************
// *               CAPACITANCE PARAMETERS 
// **************************************************************
+cjc     = (1.0062e-013+dcjc_pnp25a100ll)  cje     = (1.2328e-013+dcje_pnp25a100ll)  cjs     = 0               fc      = 0.75          
+mjc     = 0.182957        mje     = 0.316785        mjs     = 0.5             vjc     = 0.58343       
+vje     = 0.728959        vjs     = 0.75            xcjc    = 0.5             cbcp    = 0             
+cbep    = 0               ccsp    = 0               itf     = 0.1             ptf     = 0             
+tf      = 1e-010          tr      = 0               vtf     = 10              xtf     = 1             
// **************************************************************
// *               Noise PARAMETERS 
// **************************************************************
+af      = 1               kf      = 0             
// **************************************************************
// *               DC PARAMETERS 
// **************************************************************
+is      = (4.8593e-018+dis_pnp25a100ll)  rb      = 137.07          re      = 1.0462          irb     = 0.0055        
+rc      = 1.808           rbm     = 2               bf      = (0.841+dbf_pnp25a100ll)  nf      = (0.98867+dnf_pnp25a100ll)
+vaf     = 346.8           ikf     = 0.0066923       ise     = 1.9539e-015     ne      = 1.999         
+br      = 0.011367        nr      = 0.98036         var     = 44.6            ikr     = 0.005         
+nkf     = 0.5             isc     = 8.5846e-015     nc      = 1.1964        
// **************************************************************
// *               TEMPERATURE PARAMETERS 
// **************************************************************
+xtb     = 0               xti     = 3               eg      = 1.16            bex     = 0             
+bexv    = 0               ctc     = 0.0014393       cte     = 0.0008479       cts     = 0             
+tlev    = 0               tlevc   = 1               tvjc    = 0.00016652      tvje    = 0.0016593     
+tvjs    = 0               tnf1    = -8.8014e-005    tnr1    = 5.7377e-007     tne1    = -0.00084079   
+tnc1    = -4.12e-005      tbf1    = 0.00375         tbr1    = -0.0026277      tvaf1   = 0             
+tvar1   = 0               tikf1   = -0.0069816      tikr1   = 0               tns1    = 0             
+trb1    = 0.00096183      trc1    = 0               tre1    = 0               tirb1   = 0             
+trm1    = 0               tmjc1   = 0               tmje1   = 0               tmjs1   = 0             
+ttf1    = 0               titf1   = 0               ttr1    = 0               tnf2    = -4.3846e-008  
+tnr2    = 2.9e-006        tne2    = 0               tbf2    = -1.8814e-007    tbr2    = 3.5832e-005   
+tikf2   = 4.328e-005      tikr2   = -9.9e-021       trb2    = -3.697e-005     trc2    = 0             
// *
