// * Spectre Lib Format by SDMT
simulator lang=spectre  insensitive=yes

library l0040ll_v1p4_1r
// * this file contains 1.1v, 2.5v corner model parameters.
// * five corners are supported: tt, ff, ss, fnsp and snfp.
// * this file should be used with the model parameter files 'l0040ll_v1p4_1r_spe.mdl', 'l0040ll_v1p4_1r_dio_spe.mdl',
// * './bjt/_spe.mdl', 'l0040ll_v1p4_1r_res_spe.ckt', 'l0040ll_v1p4_1r_var_spe.ckt','l0040ll_lpe_v1p4_1r_n11ll_spe.mdl','l0040ll_lpe_v1p4_1r_p11ll_spe.mdl',
// * 'l0040ll_lpe_v1p4_1r_nhvt11ll_spe.mdl','l0040ll_lpe_v1p4_1r_phvt11ll_spe.mdl','l0040ll_lpe_v1p4_1r_nlvt11ll_spe.mdl','l0040ll_lpe_v1p4_1r_plvt11ll_spe.mdl',
// * 'l0040ll_lpe_v1p4_1r_n25ll_spe.mdl','l0040ll_lpe_v1p4_1r_p25ll_spe.mdl','l0040ll_lpe_v1p4_1r_nod33ll_spe.mdl','l0040ll_lpe_v1p4_1r_pod33ll_spe.mdl',
// * 'l0040ll_lpe_v1p4_1r_nud18ll_spe.mdl','l0040ll_lpe_v1p4_1r_pud18ll_spe.mdl' ,'l0040ll_v1p4_1r_ldmos_spe.ckt' and 'l0040ll_v1p4_1r_mom_spe.ckt'.
// * the "prelayout" is globally changed parameter for mos device, which has been defined as the switch for contact to poly edge parasitic capacitance.
// * the contact to poly edge parasitic capacitance will be included when the flag of prelayout is set to 1 for pre-layout simulation.
// * the "flag_cc" is globally changed parameter for 3-t poly resistor device, which has been defined as the switch for poly to poly parasitic capacitance.
// * user can include a "pre_layout" library section to set these two flags for pre-layout simulation.
// * please notice that the library "pre_layout" need to be placed behind tt/ff/ss/fnsp/snfp/mos_mc and res_tt/res_ff/res_ss/res_mc sections to prevent from the redefine(these two flags change back to 0).
// * need to turn off these two flags when do post-layout simulation.
// * no part of this file can be released without the consent of smic.
// ******************
section pre_layout
setoption1 options gmin=1e-14 scale=0.9
parameters prelayout=1
parameters flag_cc=1
endsection pre_layout

// ******************
// * mos corner model
// ******************
section tt
setoption1 options gmin=1e-14 scale=0.9
parameters sigma_mis_toxe = 0
parameters sigma_mis_xl = 0
parameters sigma_mis_xw = 0
parameters sigma_mis_vth0 = 0
parameters sigma_mis_u0 = 0
parameters sigma_mis_voff = 0
parameters sigma_mis_vsat = 0
statistics {

    mismatch {

     vary sigma_mis_toxe dist=gauss std=3/3
     vary sigma_mis_xl dist=gauss std=3/3
     vary sigma_mis_xw dist=gauss std=3/3
     vary sigma_mis_vth0 dist=gauss std=3/3
     vary sigma_mis_u0 dist=gauss std=3/3
     vary sigma_mis_voff dist=gauss std=3/3
     vary sigma_mis_vsat dist=gauss std=3/3

           }
      }
// *1.1v core nmos (tt corner)
inline subckt n11ll_ckt ( d g s b )
parameters w=1e-6 l=1e-6 sa=sar sb=sbr sd=sdr as=asr ad=adr ps=psr pd=pdr nrd=nrdr nrs=nrsr sca=0 scb=0 scc=0 nf=1 mr=1 globalmod=1 mismod=1 dps=0.14u dpcs=0.04u dsts=1u lpemod=1 prelayout=0 dcn=dcnr
parameters dmcgr = 3.5e-8
parameters dmcir = 3.5e-8
parameters scale_mos = 0.9
parameters xlr = 5.8e-9
parameters xwr = 1.7e-8
parameters sar = 0.261e-6/scale_mos
parameters sbr = 0.261e-6/scale_mos
parameters sdr = 2*dmcgr/scale_mos
parameters adr = (nf*dmcgr+dmcir)/scale_mos*(w/nf+xwr/scale_mos)
parameters asr = (nf*dmcgr+dmcir)/scale_mos*(w/nf+xwr/scale_mos)
parameters pdr = 2*(nf*dmcgr+dmcir)/scale_mos+(nf+1)*(w/nf+xwr/scale_mos)
parameters psr = 2*(nf*dmcgr+dmcir)/scale_mos+(nf+1)*(w/nf+xwr/scale_mos)
parameters nrdr = dmcgr/scale_mos/nf/(w/nf+xwr/scale_mos)
parameters nrsr = dmcgr/scale_mos/nf/(w/nf+xwr/scale_mos)
parameters dcnr = max(1,int(((w/nf-0.009*1e-6*2/scale_mos)-0.054*1e-6/scale_mos)/(0.126*1e-6/scale_mos)+1))
// ******mismatch******
parameters lef = l*scale_mos+xlr
parameters wef = w*scale_mos/nf+xwr
parameters geo_fac = 1/sqrt(wef*lef*nf*mr)
parameters atoxe_n11ll = 4.82135e-019
parameters axl_n11ll = 5.73936e-017
parameters axw_n11ll = 6.46943e-017
parameters avth0_n11ll = 2.17575e-009
parameters au0_n11ll = 7.22841e-015
parameters avoff_n11ll = 2.6423e-009
parameters dtoxe_n11ll_mis = 0+atoxe_n11ll*geo_fac*sigma_mis_toxe*mismod
parameters dxl_n11ll_mis = 0+axl_n11ll*geo_fac*sigma_mis_xl*mismod
parameters dxw_n11ll_mis = 0+axw_n11ll*geo_fac*sigma_mis_xw*mismod
parameters dvth0_n11ll_mis = 0+avth0_n11ll*geo_fac*sigma_mis_vth0*mismod
parameters du0_n11ll_mis = 0+au0_n11ll*geo_fac*sigma_mis_u0*mismod
parameters dvoff_n11ll_mis = 0+avoff_n11ll*geo_fac*sigma_mis_voff*mismod
// ******corner******
parameters dtoxe_n11ll = 0+dtoxe_n11ll_mis
parameters dxl_n11ll = 0+dxl_n11ll_mis
parameters dxw_n11ll = 0+dxw_n11ll_mis
parameters dvth_n11ll = 0+dvth0_n11ll_mis
parameters du0_n11ll = 0+du0_n11ll_mis
parameters dvoff_n11ll = 0+dvoff_n11ll_mis
parameters dcgdo_n11ll = 0+prelayout*6.64e-18*dcn/(w*scale_mos)
parameters dcgso_n11ll = 0+prelayout*6.64e-18*dcn/(w*scale_mos)
parameters dcjs_n11ll = 0
parameters dcjsws_n11ll = 0
parameters dcjswgs_n11ll = 0
parameters dcf_n11ll = 0
parameters dcgdl_n11ll = 0
parameters dcgsl_n11ll = 0
parameters dlvth0_n11ll = 0
parameters dwvth0_n11ll = 0
parameters dpvth0_n11ll = 0
parameters dlu0_n11ll = 0
parameters dlvsat_n11ll = 0
parameters dags_n11ll = 0
parameters dpvsat_n11ll = 0
parameters dlvoff_n11ll = 0
parameters dleta0_n11ll = 0
parameters dlkt1_n11ll = 0
parameters dlat_n11ll = 0
parameters dlcit_n11ll = 0
n11ll_ckt (d g s b) n11ll_ckt w=w l=l sa=sa sb=sb sd=sd as=as ad=ad ps=ps pd=pd nrd=nrd nrs=nrs sca=sca scb=scb scc=scc nf=nf m=mr
include "l0040ll_v1p4_1r_spe.mdl"
include "l0040ll_lpe_v1p4_1r_n11ll_spe.mdl"
ends n11ll_ckt

// *1.1v core pmos (tt corner)
inline subckt p11ll_ckt ( d g s b )
parameters w=1e-6 l=1e-6 sa=sar sb=sbr sd=sdr as=asr ad=adr ps=psr pd=pdr nrd=nrdr nrs=nrsr sca=0 scb=0 scc=0 nf=1 mr=1 globalmod=1 mismod=1 dps=0.14u dpcs=0.04u dsts=1u lpemod=1 prelayout=0 dcn=dcnr
parameters dmcgr = 3.5e-8
parameters dmcir = 3.5e-8
parameters scale_mos = 0.9
parameters xlr = 5.1e-9
parameters xwr = 1.8e-8
parameters sar = 2.61e-7/scale_mos
parameters sbr = 2.61e-7/scale_mos
parameters sdr = 2*dmcgr/scale_mos
parameters adr = (nf*dmcgr+dmcir)/scale_mos*(w/nf+xwr/scale_mos)
parameters asr = (nf*dmcgr+dmcir)/scale_mos*(w/nf+xwr/scale_mos)
parameters pdr = 2*(nf*dmcgr+dmcir)/scale_mos+(nf+1)*(w/nf+xwr/scale_mos)
parameters psr = 2*(nf*dmcgr+dmcir)/scale_mos+(nf+1)*(w/nf+xwr/scale_mos)
parameters nrdr = dmcgr/scale_mos/nf/(w/nf+xwr/scale_mos)
parameters nrsr = dmcgr/scale_mos/nf/(w/nf+xwr/scale_mos)
parameters dcnr = max(1,int(((w/nf-0.009*1e-6*2/scale_mos)-0.054*1e-6/scale_mos)/(0.126*1e-6/scale_mos)+1))
// ******mismatch******
parameters geo_fac = 1/sqrt(wef*lef*nf*mr)
parameters lef = l*scale_mos+xlr
parameters wef = w*scale_mos/nf+xwr
parameters avth0_p11ll = 1.54741e-009
parameters avoff_p11ll = 1.41954e-009
parameters atoxe_p11ll = 7.91588e-019
parameters axl_p11ll = 5.71382e-017
parameters axw_p11ll = 6.44064e-017
parameters au0_p11ll = 8.03123e-012
parameters avsat_p11ll = 0.000549224
parameters dtoxe_p11ll_mis = 0+atoxe_p11ll*geo_fac*sigma_mis_toxe*mismod
parameters dvth0_p11ll_mis = 0+avth0_p11ll*geo_fac*sigma_mis_vth0*mismod
parameters dvoff_p11ll_mis = 0+avoff_p11ll*geo_fac*sigma_mis_voff*mismod
parameters du0_p11ll_mis = 0+au0_p11ll*geo_fac*sigma_mis_u0*mismod
parameters dxl_p11ll_mis = 0+axl_p11ll*geo_fac*sigma_mis_xl*mismod
parameters dxw_p11ll_mis = 0+axw_p11ll*geo_fac*sigma_mis_xw*mismod
parameters dvsat_p11ll_mis = 0+avsat_p11ll*geo_fac*sigma_mis_vsat*mismod
// ******corner******
parameters dtoxe_p11ll = 0+dtoxe_p11ll_mis
parameters dvth_p11ll = 0+dvth0_p11ll_mis
parameters dvoff_p11ll = 0+dvoff_p11ll_mis
parameters dxw_p11ll = 0+dxw_p11ll_mis
parameters dxl_p11ll = 0+dxl_p11ll_mis
parameters du0_p11ll = 0+du0_p11ll_mis
parameters dvsat_p11ll = 0+dvsat_p11ll_mis
parameters dcf_p11ll = 0
parameters dcjs_p11ll = 0
parameters dcjsws_p11ll = 0
parameters dcjswgs_p11ll = 0
parameters dcgdl_p11ll = 0
parameters dcgsl_p11ll = 0
parameters dlvth0_p11ll = 0
parameters dwvth0_p11ll = 0
parameters dpvth0_p11ll = 0
parameters dlu0_p11ll = 0
parameters dwu0_p11ll = 0
parameters dpu0_p11ll = 0
parameters dlvsat_p11ll = 0
parameters dpvsat_p11ll = 0
parameters deta0_p11ll = 0
parameters dpvoff_p11ll = 0
parameters dcgdo_p11ll = 0+prelayout*7.63e-18*dcn/(w*scale_mos)
parameters dcgso_p11ll = 0+prelayout*7.63e-18*dcn/(w*scale_mos)
parameters dute_p11ll = 0
parameters dpute_p11ll = 0
p11ll_ckt (d g s b) p11ll_ckt w=w l=l sa=sa sb=sb sd=sd as=as ad=ad ps=ps pd=pd nrd=nrd nrs=nrs sca=sca scb=scb scc=scc nf=nf m=mr
include "l0040ll_v1p4_1r_spe.mdl"
include "l0040ll_lpe_v1p4_1r_p11ll_spe.mdl"
ends p11ll_ckt

// *1.1v core hvt nmos (tt corner)
inline subckt nhvt11ll_ckt ( d g s b )
parameters w=1e-6 l=1e-6 sa=sar sb=sbr sd=sdr as=asr ad=adr ps=psr pd=pdr nrd=nrdr nrs=nrsr sca=0 scb=0 scc=0 nf=1 mr=1 globalmod=1 mismod=1 dps=0.14u dpcs=0.04u dsts=1u lpemod=1 prelayout=0 dcn=dcnr
parameters dmcgr = 3.5e-8
parameters dmcir = 3.5e-8
parameters scale_mos = 0.9
parameters xlr = 5.8e-9
parameters xwr = 1.7e-8
parameters sar = 0.261e-6/scale_mos
parameters sbr = 0.261e-6/scale_mos
parameters sdr = 2*dmcgr/scale_mos
parameters adr = (nf*dmcgr+dmcir)/scale_mos*(w/nf+xwr/scale_mos)
parameters asr = (nf*dmcgr+dmcir)/scale_mos*(w/nf+xwr/scale_mos)
parameters pdr = 2*(nf*dmcgr+dmcir)/scale_mos+(nf+1)*(w/nf+xwr/scale_mos)
parameters psr = 2*(nf*dmcgr+dmcir)/scale_mos+(nf+1)*(w/nf+xwr/scale_mos)
parameters nrdr = dmcgr/scale_mos/nf/(w/nf+xwr/scale_mos)
parameters nrsr = dmcgr/scale_mos/nf/(w/nf+xwr/scale_mos)
parameters dcnr = max(1,int(((w/nf-0.009*1e-6*2/scale_mos)-0.054*1e-6/scale_mos)/(0.126*1e-6/scale_mos)+1))
// ******mismatch******
parameters lef = l*scale_mos+xlr
parameters wef = w*scale_mos/nf+xwr
parameters geo_fac = 1/sqrt(wef*lef*nf*mr)
parameters atoxe_nhvt11ll = 4.82135e-019
parameters axl_nhvt11ll = 5.73936e-017
parameters axw_nhvt11ll = 6.46943e-017
parameters avth0_nhvt11ll = 2.39984e-009
parameters avoff_nhvt11ll = 3.46964e-009
parameters dtoxe_nhvt11ll_mis = 0+atoxe_nhvt11ll*geo_fac*sigma_mis_toxe*mismod
parameters dxl_nhvt11ll_mis = 0+axl_nhvt11ll*geo_fac*sigma_mis_xl*mismod
parameters dxw_nhvt11ll_mis = 0+axw_nhvt11ll*geo_fac*sigma_mis_xw*mismod
parameters dvth0_nhvt11ll_mis = 0+avth0_nhvt11ll*geo_fac*sigma_mis_vth0*mismod
parameters dvoff_nhvt11ll_mis = 0+avoff_nhvt11ll*geo_fac*sigma_mis_voff*mismod
// ******corner******
parameters dtoxe_nhvt11ll = 0+dtoxe_nhvt11ll_mis
parameters dxl_nhvt11ll = 0+dxl_nhvt11ll_mis
parameters dxw_nhvt11ll = 0+dxw_nhvt11ll_mis
parameters dvth_nhvt11ll = 0+dvth0_nhvt11ll_mis
parameters dvoff_nhvt11ll = 0+dvoff_nhvt11ll_mis
parameters dcgdo_nhvt11ll = 0+prelayout*6.64e-18*dcn/(w*scale_mos)
parameters dcgso_nhvt11ll = 0+prelayout*6.64e-18*dcn/(w*scale_mos)
parameters dcjs_nhvt11ll = 0
parameters dcjsws_nhvt11ll = 0
parameters dcjswgs_nhvt11ll = 0
parameters dcf_nhvt11ll = 0
parameters dcgdl_nhvt11ll = 0
parameters dcgsl_nhvt11ll = 0
parameters dlvth0_nhvt11ll = 0
parameters dwvth0_nhvt11ll = 0
parameters dpvth0_nhvt11ll = 0
parameters du0_nhvt11ll = 0
parameters dlu0_nhvt11ll = 0
parameters dlvsat_nhvt11ll = 0
parameters dags_nhvt11ll = 0
parameters dpvsat_nhvt11ll = 0
parameters dlvoff_nhvt11ll = 0
parameters dleta0_nhvt11ll = 0
parameters dlcit_nhvt11ll = 0
parameters dagidl_nhvt11ll = 0
parameters dlagidl_nhvt11ll = 0
parameters djtsswgd_nhvt11ll = 0
nhvt11ll_ckt (d g s b) nhvt11ll_ckt w=w l=l sa=sa sb=sb sd=sd as=as ad=ad ps=ps pd=pd nrd=nrd nrs=nrs sca=sca scb=scb scc=scc nf=nf m=mr
include "l0040ll_v1p4_1r_spe.mdl"
include "l0040ll_lpe_v1p4_1r_nhvt11ll_spe.mdl"
ends nhvt11ll_ckt

// *1.1v core hvt pmos (tt corner)
inline subckt phvt11ll_ckt ( d g s b )
parameters w=1e-6 l=1e-6 sa=sar sb=sbr sd=sdr as=asr ad=adr ps=psr pd=pdr nrd=nrdr nrs=nrsr sca=0 scb=0 scc=0 nf=1 mr=1 globalmod=1 mismod=1 dps=0.14u dpcs=0.04u dsts=1u lpemod=1 prelayout=0 dcn=dcnr
parameters dmcgr = 3.5e-8
parameters dmcir = 3.5e-8
parameters scale_mos = 0.9
parameters xlr = 5.1e-9
parameters xwr = 1.8e-8
parameters sar = 2.61e-7/scale_mos
parameters sbr = 2.61e-7/scale_mos
parameters sdr = 2*dmcgr/scale_mos
parameters adr = (nf*dmcgr+dmcir)/scale_mos*(w/nf+xwr/scale_mos)
parameters asr = (nf*dmcgr+dmcir)/scale_mos*(w/nf+xwr/scale_mos)
parameters pdr = 2*(nf*dmcgr+dmcir)/scale_mos+(nf+1)*(w/nf+xwr/scale_mos)
parameters psr = 2*(nf*dmcgr+dmcir)/scale_mos+(nf+1)*(w/nf+xwr/scale_mos)
parameters nrdr = dmcgr/scale_mos/nf/(w/nf+xwr/scale_mos)
parameters nrsr = dmcgr/scale_mos/nf/(w/nf+xwr/scale_mos)
parameters dcnr = max(1,int(((w/nf-0.009*1e-6*2/scale_mos)-0.054*1e-6/scale_mos)/(0.126*1e-6/scale_mos)+1))
// ******mismatch******
parameters dtoxe_phvt11ll_mis = 0+atoxe_phvt11ll*geo_fac*sigma_mis_toxe*mismod
parameters dvth0_phvt11ll_mis = 0+avth0_phvt11ll*geo_fac*sigma_mis_vth0*mismod
parameters dvoff_phvt11ll_mis = 0+avoff_phvt11ll*geo_fac*sigma_mis_voff*mismod
parameters dxl_phvt11ll_mis = 0+axl_phvt11ll*geo_fac*sigma_mis_xl*mismod
parameters dxw_phvt11ll_mis = 0+axw_phvt11ll*geo_fac*sigma_mis_xw*mismod
parameters geo_fac = 1/sqrt(wef*lef*nf*mr)
parameters lef = l*scale_mos+xlr
parameters wef = w*scale_mos/nf+xwr
parameters atoxe_phvt11ll = 7.91588e-019
parameters avth0_phvt11ll = 2.01495e-009
parameters avoff_phvt11ll = 7.19625e-010
parameters axl_phvt11ll = 5.71382e-017
parameters axw_phvt11ll = 6.44064e-017
// ******corner******
parameters dtoxe_phvt11ll = 0+dtoxe_phvt11ll_mis
parameters dvth_phvt11ll = 0+dvth0_phvt11ll_mis
parameters dxw_phvt11ll = 0+dxw_phvt11ll_mis
parameters dxl_phvt11ll = 0+dxl_phvt11ll_mis
parameters dvoff_phvt11ll = 0+dvoff_phvt11ll_mis
parameters dcf_phvt11ll = 0
parameters dcjs_phvt11ll = 0
parameters dcjsws_phvt11ll = 0
parameters dcjswgs_phvt11ll = 0
parameters dcgdo_phvt11ll = 0+prelayout*7.63e-18*dcn/(w*scale_mos)
parameters dcgso_phvt11ll = 0+prelayout*7.63e-18*dcn/(w*scale_mos)
parameters dcgdl_phvt11ll = 0
parameters dcgsl_phvt11ll = 0
parameters dlvth0_phvt11ll = 0
parameters dwvth0_phvt11ll = 0
parameters dpvth0_phvt11ll = 0
parameters dlu0_phvt11ll = 0
parameters dpu0_phvt11ll = 0
parameters dlvsat_phvt11ll = 0
parameters dwvsat_phvt11ll = 0
parameters dleta0_phvt11ll = 0
parameters dpeta0_phvt11ll = 0
parameters dagidl_phvt11ll = 0
parameters du0_phvt11ll = 0
parameters dlvoff_phvt11ll = 0
parameters dute_phvt11ll = 0
parameters dlute_phvt11ll = 0
phvt11ll_ckt (d g s b) phvt11ll_ckt w=w l=l sa=sa sb=sb sd=sd as=as ad=ad ps=ps pd=pd nrd=nrd nrs=nrs sca=sca scb=scb scc=scc nf=nf m=mr
include "l0040ll_v1p4_1r_spe.mdl"
include "l0040ll_lpe_v1p4_1r_phvt11ll_spe.mdl"
ends phvt11ll_ckt

// *1.1v core lvt nmos (tt corner)
inline subckt nlvt11ll_ckt ( d g s b )
parameters w=1e-6 l=1e-6 sa=sar sb=sbr sd=sdr as=asr ad=adr ps=psr pd=pdr nrd=nrdr nrs=nrsr sca=0 scb=0 scc=0 nf=1 mr=1 globalmod=1 mismod=1 dps=0.14u dpcs=0.04u dsts=1u lpemod=1 prelayout=0 dcn=dcnr
parameters dmcgr = 3.5e-8
parameters dmcir = 3.5e-8
parameters scale_mos = 0.9
parameters xlr = 5.8e-9
parameters xwr = 1.7e-8
parameters sar = 0.261e-6/scale_mos
parameters sbr = 0.261e-6/scale_mos
parameters sdr = 2*dmcgr/scale_mos
parameters adr = (nf*dmcgr+dmcir)/scale_mos*(w/nf+xwr/scale_mos)
parameters asr = (nf*dmcgr+dmcir)/scale_mos*(w/nf+xwr/scale_mos)
parameters pdr = 2*(nf*dmcgr+dmcir)/scale_mos+(nf+1)*(w/nf+xwr/scale_mos)
parameters psr = 2*(nf*dmcgr+dmcir)/scale_mos+(nf+1)*(w/nf+xwr/scale_mos)
parameters nrdr = dmcgr/scale_mos/nf/(w/nf+xwr/scale_mos)
parameters nrsr = dmcgr/scale_mos/nf/(w/nf+xwr/scale_mos)
parameters dcnr = max(1,int(((w/nf-0.009*1e-6*2/scale_mos)-0.054*1e-6/scale_mos)/(0.126*1e-6/scale_mos)+1))
// ******mismatch******
parameters lef = l*scale_mos+xlr
parameters wef = w*scale_mos/nf+xwr
parameters geo_fac = 1/sqrt(wef*lef*nf*mr)
parameters atoxe_nlvt11ll = 7.22841e-038
parameters axl_nlvt11ll = 7.22841e-038
parameters axw_nlvt11ll = 7.22841e-038
parameters avth0_nlvt11ll = 2.07999e-009
parameters au0_nlvt11ll = 1.12999e-012
parameters avoff_nlvt11ll = 2.6e-009
parameters dtoxe_nlvt11ll_mis = 0+atoxe_nlvt11ll*geo_fac*sigma_mis_toxe*mismod
parameters dxl_nlvt11ll_mis = 0+axl_nlvt11ll*geo_fac*sigma_mis_xl*mismod
parameters dxw_nlvt11ll_mis = 0+axw_nlvt11ll*geo_fac*sigma_mis_xw*mismod
parameters dvth0_nlvt11ll_mis = 0+avth0_nlvt11ll*geo_fac*sigma_mis_vth0*mismod
parameters du0_nlvt11ll_mis = 0+au0_nlvt11ll*geo_fac*sigma_mis_u0*mismod
parameters dvoff_nlvt11ll_mis = 0+avoff_nlvt11ll*geo_fac*sigma_mis_voff*mismod
// ******corner******
parameters dtoxe_nlvt11ll = 0+dtoxe_nlvt11ll_mis
parameters dxl_nlvt11ll = 0+dxl_nlvt11ll_mis
parameters dxw_nlvt11ll = 0+dxw_nlvt11ll_mis
parameters dvth_nlvt11ll = 0+dvth0_nlvt11ll_mis
parameters du0_nlvt11ll = 0+du0_nlvt11ll_mis
parameters dvoff_nlvt11ll = 0+dvoff_nlvt11ll_mis
parameters dcgdo_nlvt11ll = 0+prelayout*6.64e-18*dcn/(w*scale_mos)
parameters dcgso_nlvt11ll = 0+prelayout*6.64e-18*dcn/(w*scale_mos)
parameters dcjs_nlvt11ll = 0
parameters dcjsws_nlvt11ll = 0
parameters dcjswgs_nlvt11ll = 0
parameters dcf_nlvt11ll = 0
parameters dcgdl_nlvt11ll = 0
parameters dcgsl_nlvt11ll = 0
parameters dlvth0_nlvt11ll = 0
parameters dwvth0_nlvt11ll = 0
parameters dpvth0_nlvt11ll = 0
parameters dlu0_nlvt11ll = 0
parameters dpu0_nlvt11ll = 0
parameters dlvsat_nlvt11ll = 0
parameters dags_nlvt11ll = 0
parameters dpvsat_nlvt11ll = 0
parameters dlvoff_nlvt11ll = 0
parameters dleta0_nlvt11ll = 0
nlvt11ll_ckt (d g s b) nlvt11ll_ckt w=w l=l sa=sa sb=sb sd=sd as=as ad=ad ps=ps pd=pd nrd=nrd nrs=nrs sca=sca scb=scb scc=scc nf=nf m=mr
include "l0040ll_v1p4_1r_spe.mdl"
include "l0040ll_lpe_v1p4_1r_nlvt11ll_spe.mdl"
ends nlvt11ll_ckt

// *1.1v core lvt pmos (tt corner)
inline subckt plvt11ll_ckt ( d g s b )
parameters w=1e-6 l=1e-6 sa=sar sb=sbr sd=sdr as=asr ad=adr ps=psr pd=pdr nrd=nrdr nrs=nrsr sca=0 scb=0 scc=0 nf=1 mr=1 globalmod=1 mismod=1 dps=0.14u dpcs=0.04u dsts=1u lpemod=1 prelayout=0 dcn=dcnr
parameters dmcgr = 3.5e-8
parameters dmcir = 3.5e-8
parameters scale_mos = 0.9
parameters xlr = 5.1e-9
parameters xwr = 1.8e-8
parameters sar = 2.61e-7/scale_mos
parameters sbr = 2.61e-7/scale_mos
parameters sdr = 2*dmcgr/scale_mos
parameters adr = (nf*dmcgr+dmcir)/scale_mos*(w/nf+xwr/scale_mos)
parameters asr = (nf*dmcgr+dmcir)/scale_mos*(w/nf+xwr/scale_mos)
parameters pdr = 2*(nf*dmcgr+dmcir)/scale_mos+(nf+1)*(w/nf+xwr/scale_mos)
parameters psr = 2*(nf*dmcgr+dmcir)/scale_mos+(nf+1)*(w/nf+xwr/scale_mos)
parameters nrdr = dmcgr/scale_mos/nf/(w/nf+xwr/scale_mos)
parameters nrsr = dmcgr/scale_mos/nf/(w/nf+xwr/scale_mos)
parameters dcnr = max(1,int(((w/nf-0.009*1e-6*2/scale_mos)-0.054*1e-6/scale_mos)/(0.126*1e-6/scale_mos)+1))
// ******mismatch******
parameters dvth0_plvt11ll_mis = 0+avth0_plvt11ll*geo_fac*sigma_mis_vth0*mismod
parameters du0_plvt11ll_mis = 0+au0_plvt11ll*geo_fac*sigma_mis_u0*mismod
parameters dvoff_plvt11ll_mis = 0+avoff_plvt11ll*geo_fac*sigma_mis_voff*mismod
parameters dtoxe_plvt11ll_mis = 0+atoxe_plvt11ll*geo_fac*sigma_mis_toxe*mismod
parameters dxl_plvt11ll_mis = 0+axl_plvt11ll*geo_fac*sigma_mis_xl*mismod
parameters dxw_plvt11ll_mis = 0+axw_plvt11ll*geo_fac*sigma_mis_xw*mismod
parameters geo_fac = 1/sqrt(wef*lef*nf*mr)
parameters lef = l*scale_mos+xlr
parameters wef = w*scale_mos/nf+xwr
parameters avth0_plvt11ll = 2.11e-009
parameters au0_plvt11ll = 7.7e-012
parameters avoff_plvt11ll = 3.3e-010
parameters atoxe_plvt11ll = 7.196e-038
parameters axl_plvt11ll = 7.196e-038
parameters axw_plvt11ll = 7.196e-038
// ******corner******
parameters dvth_plvt11ll = 0+dvth0_plvt11ll_mis
parameters du0_plvt11ll = 0+du0_plvt11ll_mis
parameters dlu0_plvt11ll = 0
parameters dvoff_plvt11ll = 0+dvoff_plvt11ll_mis
parameters dtoxe_plvt11ll = 0+dtoxe_plvt11ll_mis
parameters dxl_plvt11ll = 0+dxl_plvt11ll_mis
parameters dxw_plvt11ll = 0+dxw_plvt11ll_mis
parameters dcjs_plvt11ll = 0
parameters dcjsws_plvt11ll = 0
parameters dcjswgs_plvt11ll = 0
parameters dcgdo_plvt11ll = 0+prelayout*7.63e-18*dcn/(w*scale_mos)
parameters dcgso_plvt11ll = 0+prelayout*7.63e-18*dcn/(w*scale_mos)
parameters dcgdl_plvt11ll = 0
parameters dcgsl_plvt11ll = 0
parameters dcf_plvt11ll = 0
parameters dlvth0_plvt11ll = 0
parameters dwvth0_plvt11ll = 0
parameters dpvth0_plvt11ll = 0
parameters dlvsat_plvt11ll = 0
parameters dpvsat_plvt11ll = 0
parameters dleta0_plvt11ll = 0
parameters dlvoff_plvt11ll = 0
plvt11ll_ckt (d g s b) plvt11ll_ckt w=w l=l sa=sa sb=sb sd=sd as=as ad=ad ps=ps pd=pd nrd=nrd nrs=nrs sca=sca scb=scb scc=scc nf=nf m=mr
include "l0040ll_v1p4_1r_spe.mdl"
include "l0040ll_lpe_v1p4_1r_plvt11ll_spe.mdl"
ends plvt11ll_ckt

// *1.1v core native nmos (tt corner)
inline subckt nt11ll_ckt ( d g s b )
parameters w=1e-6 l=1e-6 sa=sar sb=sbr sd=sdr as=asr ad=adr ps=psr pd=pdr nrd=nrdr nrs=nrsr sca=0 scb=0 scc=0 nf=1 mr=1 globalmod=1 mismod=1 prelayout=0 dcn=dcnr
parameters dmcgr = 3.5e-8
parameters dmcir = 3.5e-8
parameters scale_mos = 0.9
parameters xlr = 5.8e-9
parameters xwr = 1.7e-8
parameters sar = 0.261e-6/scale_mos
parameters sbr = 0.261e-6/scale_mos
parameters sdr = 2*dmcgr/scale_mos
parameters adr = (nf*dmcgr+dmcir)/scale_mos*(w/nf+xwr/scale_mos)
parameters asr = (nf*dmcgr+dmcir)/scale_mos*(w/nf+xwr/scale_mos)
parameters pdr = 2*(nf*dmcgr+dmcir)/scale_mos+(nf+1)*(w/nf+xwr/scale_mos)
parameters psr = 2*(nf*dmcgr+dmcir)/scale_mos+(nf+1)*(w/nf+xwr/scale_mos)
parameters nrdr = dmcgr/scale_mos/nf/(w/nf+xwr/scale_mos)
parameters nrsr = dmcgr/scale_mos/nf/(w/nf+xwr/scale_mos)
parameters dcnr = max(1,int(((w/nf-0.009*1e-6*2/scale_mos)-0.054*1e-6/scale_mos)/(0.126*1e-6/scale_mos)+1))
// ******mismatch******
parameters dvth0_nt11ll_mis = 0+avth0_nt11ll*geo_fac*sigma_mis_vth0*mismod
parameters dvoff_nt11ll_mis = 0+avoff_nt11ll*geo_fac*sigma_mis_voff*mismod
parameters geo_fac = 1/sqrt(wef*lef*nf*mr)
parameters lef = l*scale_mos+xlr
parameters wef = w*scale_mos/nf+xwr
parameters avth0_nt11ll = 4e-09
parameters avoff_nt11ll = 4e-09
// ******corner******
parameters dvth_nt11ll = 0+dvth0_nt11ll_mis
parameters dvoff_nt11ll = 0+dvoff_nt11ll_mis
parameters dtoxe_nt11ll = 0
parameters dxl_nt11ll = 0
parameters dxw_nt11ll = 0
parameters dcjs_nt11ll = 0
parameters dcjsws_nt11ll = 0
parameters dcjswgs_nt11ll = 0
parameters dcgdo_nt11ll = 0+prelayout*6.64e-18*dcn/(w*scale_mos)
parameters dcgso_nt11ll = 0+prelayout*6.64e-18*dcn/(w*scale_mos)
parameters dcgdl_nt11ll = 0
parameters dcgsl_nt11ll = 0
parameters dcf_nt11ll = 0
parameters dlvth0_nt11ll = 0
parameters dwvth0_nt11ll = 0
parameters dpvth0_nt11ll = 0
parameters du0_nt11ll = 0
parameters dlu0_nt11ll = 0
parameters dwu0_nt11ll = 0
parameters dpu0_nt11ll = 0
parameters da0_nt11ll = 0
parameters dlvsat_nt11ll = 0
parameters dpvsat_nt11ll = 0
nt11ll_ckt (d g s b) nt11ll_ckt w=w l=l sa=sa sb=sb sd=sd as=as ad=ad ps=ps pd=pd nrd=nrd nrs=nrs sca=sca scb=scb scc=scc nf=nf m=mr
include "l0040ll_v1p4_1r_spe.mdl"
ends nt11ll_ckt

// *2.5v io2 nmos  (tt corner)
inline subckt n25ll_ckt ( d g s b )
parameters w=1e-6 l=1e-6 sa=sar sb=sbr sd=sdr as=asr ad=adr ps=psr pd=pdr nrd=nrdr nrs=nrsr sca=0 scb=0 scc=0 nf=1 mr=1 globalmod=1 mismod=1 dps=0.22u dpcs=0.08u dsts=1u lpemod=1 prelayout=0 dcn=dcnr
parameters dmcgr = 7.1e-8
parameters dmcir = 7.1e-8
parameters scale_mos = 0.9
parameters xlr = 1e-008
parameters xwr = 1.5e-008
parameters sar = 0.261e-6/scale_mos
parameters sbr = 0.261e-6/scale_mos
parameters sdr = 2*dmcgr/scale_mos
parameters adr = (nf*dmcgr+dmcir)/scale_mos*(w/nf+xwr/scale_mos)
parameters asr = (nf*dmcgr+dmcir)/scale_mos*(w/nf+xwr/scale_mos)
parameters pdr = 2*(nf*dmcgr+dmcir)/scale_mos+(nf+1)*(w/nf+xwr/scale_mos)
parameters psr = 2*(nf*dmcgr+dmcir)/scale_mos+(nf+1)*(w/nf+xwr/scale_mos)
parameters nrdr = dmcgr/scale_mos/nf/(w/nf+xwr/scale_mos)
parameters nrsr = dmcgr/scale_mos/nf/(w/nf+xwr/scale_mos)
parameters dcnr = max(1,int(((w/nf-0.009*1e-6*2/scale_mos)-0.054*1e-6/scale_mos)/(0.126*1e-6/scale_mos)+1))
// ******mismatch******
parameters lef = l*scale_mos+xlr
parameters wef = w*scale_mos/nf+xwr
parameters geo_fac = 1/sqrt(wef*lef*nf*mr)
parameters atoxe_n25ll = 1.22206e-017
parameters avth0_n25ll = 4.9654e-009
parameters au0_n25ll = 2.0732e-010
parameters avoff_n25ll = 4.32949e-009
parameters axl_n25ll = 2.61683e-016
parameters axw_n25ll = 4.97198e-016
parameters dtoxe_n25ll_mis = 0+atoxe_n25ll*geo_fac*sigma_mis_toxe*mismod
parameters dvth0_n25ll_mis = 0+avth0_n25ll*geo_fac*sigma_mis_vth0*mismod
parameters du0_n25ll_mis = 0+au0_n25ll*geo_fac*sigma_mis_u0*mismod
parameters dvoff_n25ll_mis = 0+avoff_n25ll*geo_fac*sigma_mis_voff*mismod
parameters dxl_n25ll_mis = 0+axl_n25ll*geo_fac*sigma_mis_xl*mismod
parameters dxw_n25ll_mis = 0+axw_n25ll*geo_fac*sigma_mis_xw*mismod
// ******corner******
parameters dtoxe_n25ll = 0+dtoxe_n25ll_mis
parameters dvth0_n25ll = 0+dvth0_n25ll_mis
parameters du0_n25ll = 0+du0_n25ll_mis
parameters dvoff_n25ll = 0+dvoff_n25ll_mis
parameters dxl_n25ll = 0+dxl_n25ll_mis
parameters dxw_n25ll = 0+dxw_n25ll_mis
parameters dcgdo_n25ll = 0+prelayout*5.28e-18*dcn/(w*scale_mos)
parameters dcgso_n25ll = 0+prelayout*5.28e-18*dcn/(w*scale_mos)
parameters dcjs_n25ll = 0
parameters dcjsws_n25ll = 0
parameters dcjswgs_n25ll = 0
parameters dcgdl_n25ll = 0
parameters dcgsl_n25ll = 0
parameters dcf_n25ll = 0
parameters dlvth0_n25ll = 0
parameters dwvth0_n25ll = 0
parameters dpvth0_n25ll = 0
parameters dwu0_n25ll = 0
parameters dlu0_n25ll = 0
parameters dpu0_n25ll = 0
parameters dwvsat_n25ll = 0
parameters dlvsat_n25ll = 0
parameters dpvsat_n25ll = 0
n25ll_ckt (d g s b) n25ll_ckt w=w l=l sa=sa sb=sb sd=sd as=as ad=ad ps=ps pd=pd nrd=nrd nrs=nrs sca=sca scb=scb scc=scc nf=nf m=mr
include "l0040ll_v1p4_1r_spe.mdl"
include "l0040ll_lpe_v1p4_1r_n25ll_spe.mdl"
ends n25ll_ckt

// *2.5v od 3.3v io2 nmos (tt corner)
inline subckt nod33ll_ckt ( d g s b )
parameters w=1e-6 l=1e-6 sa=sar sb=sbr sd=sdr as=asr ad=adr ps=psr pd=pdr nrd=nrdr nrs=nrsr sca=0 scb=0 scc=0 nf=1 mr=1 globalmod=1 mismod=1 dps=0.22u dpcs=0.08u dsts=1u lpemod=1 prelayout=0 dcn=dcnr
parameters dmcgr = 7.1e-8
parameters dmcir = 7.1e-8
parameters scale_mos = 0.9
parameters xlr = 1e-008+2.7e-8
parameters xwr = 1.5e-008
parameters sar = 0.261e-6/scale_mos
parameters sbr = 0.261e-6/scale_mos
parameters sdr = 2*dmcgr/scale_mos
parameters adr = (nf*dmcgr+dmcir)/scale_mos*(w/nf+xwr/scale_mos)
parameters asr = (nf*dmcgr+dmcir)/scale_mos*(w/nf+xwr/scale_mos)
parameters pdr = 2*(nf*dmcgr+dmcir)/scale_mos+(nf+1)*(w/nf+xwr/scale_mos)
parameters psr = 2*(nf*dmcgr+dmcir)/scale_mos+(nf+1)*(w/nf+xwr/scale_mos)
parameters nrdr = dmcgr/scale_mos/nf/(w/nf+xwr/scale_mos)
parameters nrsr = dmcgr/scale_mos/nf/(w/nf+xwr/scale_mos)
parameters dcnr = max(1,int(((w/nf-0.009*1e-6*2/scale_mos)-0.054*1e-6/scale_mos)/(0.126*1e-6/scale_mos)+1))
// ******mismatch******
parameters lef = l*scale_mos+xlr
parameters wef = w*scale_mos/nf+xwr
parameters geo_fac = 1/sqrt(wef*lef*nf*mr)
parameters atoxe_nod33ll = 1.22206e-017
parameters avth0_nod33ll = 4.9654e-009
parameters au0_nod33ll = 2.0732e-010
parameters avoff_nod33ll = 4.32949e-009
parameters axl_nod33ll = 2.61683e-016
parameters axw_nod33ll = 4.97198e-016
parameters dtoxe_nod33ll_mis = 0+atoxe_nod33ll*geo_fac*sigma_mis_toxe*mismod
parameters dvth0_nod33ll_mis = 0+avth0_nod33ll*geo_fac*sigma_mis_vth0*mismod
parameters du0_nod33ll_mis = 0+au0_nod33ll*geo_fac*sigma_mis_u0*mismod
parameters dvoff_nod33ll_mis = 0+avoff_nod33ll*geo_fac*sigma_mis_voff*mismod
parameters dxl_nod33ll_mis = 0+axl_nod33ll*geo_fac*sigma_mis_xl*mismod
parameters dxw_nod33ll_mis = 0+axw_nod33ll*geo_fac*sigma_mis_xw*mismod
// ******corner******
parameters dtoxe_nod33ll = 0+dtoxe_nod33ll_mis
parameters dvth0_nod33ll = 0+dvth0_nod33ll_mis
parameters du0_nod33ll = 0+du0_nod33ll_mis
parameters dvoff_nod33ll = 0+dvoff_nod33ll_mis
parameters dxl_nod33ll = 0+dxl_nod33ll_mis
parameters dxw_nod33ll = 0+dxw_nod33ll_mis
parameters dcgdo_nod33ll = 0+prelayout*5.28e-18*dcn/(w*scale_mos)
parameters dcgso_nod33ll = 0+prelayout*5.28e-18*dcn/(w*scale_mos)
parameters dcjs_nod33ll = 0
parameters dcjsws_nod33ll = 0
parameters dcjswgs_nod33ll = 0
parameters dcgdl_nod33ll = 0
parameters dcgsl_nod33ll = 0
parameters dcf_nod33ll = 0
parameters dlvth0_nod33ll = 0
parameters dwvth0_nod33ll = 0
parameters dpvth0_nod33ll = 0
parameters dwu0_nod33ll = 0
parameters dlu0_nod33ll = 0
parameters dpu0_nod33ll = 0
parameters dwvsat_nod33ll = 0
parameters dlvsat_nod33ll = 0
parameters dpvsat_nod33ll = 0
nod33ll_ckt (d g s b) nod33ll_ckt w=w l=l sa=sa sb=sb sd=sd as=as ad=ad ps=ps pd=pd nrd=nrd nrs=nrs sca=sca scb=scb scc=scc nf=nf m=mr
include "l0040ll_v1p4_1r_spe.mdl"
include "l0040ll_lpe_v1p4_1r_nod33ll_spe.mdl"
ends nod33ll_ckt

// *2.5v ud 1.8v io2 nmos (tt corner)
inline subckt nud18ll_ckt ( d g s b )
parameters w=1e-6 l=1e-6 sa=sar sb=sbr sd=sdr as=asr ad=adr ps=psr pd=pdr nrd=nrdr nrs=nrsr sca=0 scb=0 scc=0 nf=1 mr=1 globalmod=1 mismod=1 dps=0.22u dpcs=0.08u dsts=1u lpemod=1 prelayout=0 dcn=dcnr
parameters dmcgr = 7.1e-8
parameters dmcir = 7.1e-8
parameters scale_mos = 0.9
parameters xlr = 1e-008
parameters xwr = 1.5e-008
parameters sar = 0.261e-6/scale_mos
parameters sbr = 0.261e-6/scale_mos
parameters sdr = 2*dmcgr/scale_mos
parameters adr = (nf*dmcgr+dmcir)/scale_mos*(w/nf+xwr/scale_mos)
parameters asr = (nf*dmcgr+dmcir)/scale_mos*(w/nf+xwr/scale_mos)
parameters pdr = 2*(nf*dmcgr+dmcir)/scale_mos+(nf+1)*(w/nf+xwr/scale_mos)
parameters psr = 2*(nf*dmcgr+dmcir)/scale_mos+(nf+1)*(w/nf+xwr/scale_mos)
parameters nrdr = dmcgr/scale_mos/nf/(w/nf+xwr/scale_mos)