//****nlvt11ll lpe model parameter 20120629**********************


simulator lang=spectre  insensitive=yes
parameters 
+scale_=0.9
+w_=(scale_*w/1e-6) l_=(scale_*l/1e-6) dps_=(scale_*dps/1.0e-6) dpcs_=(scale_*dpcs/1.0e-6) dsts_=(scale_*dsts/1.0e-6)
parameters  mudps_a=1e-006    mudps_b=9    mudps_c=0    mudps_d=0.0009
parameters  dvdps_a=0.0058    dvdps_b=9    dvdps_c=0    dvdps_d=4.309
parameters  mudpcs_a=0    mudpcs_b=1    dvdpcs_a=0    dvdpcs_b=0
parameters  mudsts_a=0.008    mudsts_b=2.473    mudsts_c=-0.002    mudsts_d=1.059
parameters  dvdsts_a=-2    dvdsts_b=2.481    dvdsts_c=0.001    dvdsts_d=-16
parameters  mu_dps=((mudps_a*pwr(l_,-1.3057)-1.684e-5)*pwr(log(dps_),mudps_b) + mudps_c*log(dps_) + mudps_d*pwr(l_,-1.2327)+0.988)
parameters  mu_dpcs=(mudpcs_a*dpcs_+mudpcs_b)
parameters  mu_dsts=(mudsts_a*pwr(log(dsts_),mudsts_b) + mudsts_c*log(dsts_) + mudsts_d)
parameters  _mulu0=(mu_dps*mu_dpcs*mu_dsts)
parameters  _mulu0_b=-0.55    _mulu0_a=1
*** mulu0 parameter mapping: _u0_*(_mulu0_b*(_mulu0-1)+_mulu0_a)
parameters  dv_dps=((dvdps_a*log(l_)+0.0031)*pwr(log(dps_),dvdps_b) + dvdps_c*log(dps_) + dvdps_d*log(l_)+2.147)
parameters  dv_dpcs=(dvdpcs_a*dpcs_+dvdpcs_b)
parameters  dv_dsts=(dvdsts_a*pwr(log(dsts_),dvdsts_b) + dvdsts_c*log(dsts_) + dvdsts_d)
parameters  _delvto=((dv_dps+dv_dpcs+dv_dsts)/1000)
parameters  _delvto_a=-0.21    _delvto_b=0
*** delvto parameter mapping: _vth0_+_delvto_a*_delvto+_delvto_b
parameters  muwl_a1=0    muwl_a2=1    muwl_a3=1    muwl_a4=1
parameters  muwl_a5=1    muwl_a6=1    muwl_a7=1    muwl_a8=1
parameters  muwl_a9=1
*** mulu0 w/l parameter mapping: 1+muwl_a1+muwl_a2/(muwl_a3+l_)-muwl_a4/(muwl_a5+l_)+muwl_a6/(muwl_a7+w_)-muwl_a8/(muwl_a9+w_)
parameters  dvwl_a1=0    dvwl_a2=1    dvwl_a3=1    dvwl_a4=1
parameters  dvwl_a5=1    dvwl_a6=1    dvwl_a7=1    dvwl_a8=1
parameters  dvwl_a9=1
*** delvto w/l parameter mapping: dvwl_a1+dvwl_a2/(dvwl_a3+l_)-dvwl_a4/(dvwl_a5+l_)+dvwl_a6/(dvwl_a7+w_)-dvwl_a8/(dvwl_a9+w_)
+lpevth0_nlvt11ll=(((_delvto_a*_delvto+_delvto_b+dvwl_a1+dvwl_a2/(dvwl_a3+w_)-dvwl_a4/(dvwl_a5+w_)+dvwl_a6/(dvwl_a7+l_)-dvwl_a8/(dvwl_a9+l_)+_delvto)*lpemod))
+lpeu0_nlvt11ll=((pwr(_mulu0*((_mulu0_b*(_mulu0-1)+_mulu0_a)*(1+muwl_a1+muwl_a2/(muwl_a3+l_)-muwl_a4/(muwl_a5+l_)+muwl_a6/(muwl_a7+w_)-muwl_a8/(muwl_a9+w_))),lpemod)))
+lpelu0_nlvt11ll=((pwr(_mulu0*((_mulu0_b*(_mulu0-1)+_mulu0_a)*(1+muwl_a1+muwl_a2/(muwl_a3+l_)-muwl_a4/(muwl_a5+l_)+muwl_a6/(muwl_a7+w_)-muwl_a8/(muwl_a9+w_))),lpemod)))
+lpewu0_nlvt11ll=((pwr(_mulu0*((_mulu0_b*(_mulu0-1)+_mulu0_a)*(1+muwl_a1+muwl_a2/(muwl_a3+l_)-muwl_a4/(muwl_a5+l_)+muwl_a6/(muwl_a7+w_)-muwl_a8/(muwl_a9+w_))),lpemod)))
+lpepu0_nlvt11ll=((pwr(_mulu0*((_mulu0_b*(_mulu0-1)+_mulu0_a)*(1+muwl_a1+muwl_a2/(muwl_a3+l_)-muwl_a4/(muwl_a5+l_)+muwl_a6/(muwl_a7+w_)-muwl_a8/(muwl_a9+w_))),lpemod)))
