//****nod33ll lpe model parameter 20120420**********************


simulator lang=spectre  insensitive=yes
parameters 
+scale_=0.9
+w_=(scale_*w/1e-6) l_=(scale_*l/1e-6) dps_=(scale_*dps/1.0e-6) dpcs_=(scale_*dpcs/1.0e-6) dsts_=(scale_*dsts/1.0e-6)  
parameters  mudps_a=0    mudps_b=1    dvdps_a=0    dvdps_b=0
parameters  mudpcs_a=0    mudpcs_b=1    dvdpcs_a=0    dvdpcs_b=0
parameters  mudsts_a=0.009    mudsts_b=1.746    mudsts_c=-0.00396    mudsts_d=0.99976
parameters  dvdsts_a=-2    dvdsts_b=1.15    dvdsts_c=0.0019    dvdsts_d=-0.1502
parameters  mu_dps=(mudps_a*dps_+mudps_b)
parameters  mu_dpcs=(mudpcs_a*dpcs_+mudpcs_b)
parameters  mu_dsts=(mudsts_a*pwr(log(dsts_),mudsts_b) + mudsts_c*log(dsts_) + mudsts_d)
parameters  _mulu0=(mu_dps*mu_dpcs*mu_dsts)
parameters  _mulu0_b=0.67    _mulu0_a=1
*** mulu0 parameter mapping: _u0_*(_mulu0_b*(_mulu0-1)+_mulu0_a)
parameters  dv_dps=(dvdps_a*dps_+dvdps_b)
parameters  dv_dpcs=(dvdpcs_a*dpcs_+dvdpcs_b)
parameters  dv_dsts=(dvdsts_a*pwr(log(dsts_),dvdsts_b) + dvdsts_c*log(dsts_) + dvdsts_d)
parameters  _delvto=((dv_dps+dv_dpcs+dv_dsts)/1000)
parameters  _delvto_a=-0.25    _delvto_b=0
*** delvto parameter mapping: _vth0_+_delvto_a*_delvto+_delvto_b
parameters  muwl_a1=0    muwl_a2=1    muwl_a3=1    muwl_a4=1
parameters  muwl_a5=1    muwl_a6=1    muwl_a7=1    muwl_a8=1
parameters  muwl_a9=1
*** mulu0 w/l parameter mapping: 1+muwl_a1+muwl_a2/(muwl_a3+l_)-muwl_a4/(muwl_a5+l_)+muwl_a6/(muwl_a7+w_)-muwl_a8/(muwl_a9+w_)
parameters  dvwl_a1=0    dvwl_a2=1    dvwl_a3=1    dvwl_a4=1
parameters  dvwl_a5=1    dvwl_a6=1    dvwl_a7=1    dvwl_a8=1
parameters  dvwl_a9=1
*** delvto w/l parameter mapping: dvwl_a1+dvwl_a2/(dvwl_a3+w_)-dvwl_a4/(dvwl_a5+w_)+dvwl_a6/(dvwl_a7+l_)-dvwl_a8/(dvwl_a9+l_)
+lpevth0_nod33ll=(((_delvto_a*_delvto+_delvto_b+dvwl_a1+dvwl_a2/(dvwl_a3+w_)-dvwl_a4/(dvwl_a5+w_)+dvwl_a6/(dvwl_a7+l_)-dvwl_a8/(dvwl_a9+l_)+_delvto)*lpemod))
+lpeu0_nod33ll=((pwr(_mulu0*((_mulu0_b*(_mulu0-1)+_mulu0_a)*(1+muwl_a1+muwl_a2/(muwl_a3+l_)-muwl_a4/(muwl_a5+l_)+muwl_a6/(muwl_a7+w_)-muwl_a8/(muwl_a9+w_))),lpemod)))
+lpelu0_nod33ll=((pwr(_mulu0*((_mulu0_b*(_mulu0-1)+_mulu0_a)*(1+muwl_a1+muwl_a2/(muwl_a3+l_)-muwl_a4/(muwl_a5+l_)+muwl_a6/(muwl_a7+w_)-muwl_a8/(muwl_a9+w_))),lpemod)))
+lpewu0_nod33ll=((pwr(_mulu0*((_mulu0_b*(_mulu0-1)+_mulu0_a)*(1+muwl_a1+muwl_a2/(muwl_a3+l_)-muwl_a4/(muwl_a5+l_)+muwl_a6/(muwl_a7+w_)-muwl_a8/(muwl_a9+w_))),lpemod)))
+lpepu0_nod33ll=((pwr(_mulu0*((_mulu0_b*(_mulu0-1)+_mulu0_a)*(1+muwl_a1+muwl_a2/(muwl_a3+l_)-muwl_a4/(muwl_a5+l_)+muwl_a6/(muwl_a7+w_)-muwl_a8/(muwl_a9+w_))),lpemod)))
