// *Spectre Model Format
simulator lang=spectre  insensitive=yes

// * No part of this file can be released without the consent of SMIC.
// *
// *************************************************************************************************************
// *  40nm Logic Low Leakage 1P10M(1P9M,1P8M,1P7M,1P6M) Salicide 1.1V/1.8V/2.5V SPICE Model (for spectre only) *
// *************************************************************************************************************
// * 
// * Release version    : 1.4_1r
// * 
// *  Release date      : 09/25/2012
// *
// * simulation tool    : cadence spectre v6.2.1
// *
// * Model name:
// *   Junction Diode   :
// *        *------------------------------------------------* 
// *        | Junction Diode type |     1.1V     |   2.5V    |  
// *        |================================================|
// *        |                     |   ndio11ll   |           |
// *        |      N+/PWELL       | ndio11llHVT  | ndio25ll  |
// *        |                     | ndio11llLVT  |           |
// *        |------------------------------------------------|
// *        |                     |   pdio11ll   |           |
// *        |      P+/NWELL       | pdio11llHVT  | pdio25ll  | 
// *        |                     | pdio11llLVT  |           |
// *        |------------------------------------------------|
// *        |   Native N+/Psub    |  ntdio11ll   | ntdio25ll |
// *        |------------------------------------------------|
// *        |      Nwell/Pwell    |          nwdioll         |  
// *        |------------------------------------------------|
// *        |      n+/rwell       |   dnd11ll    |  dnd25ll  |   
// *        |------------------------------------------------|
// *        |    rwell/dnwell     |          rwd11ll         |   
// *        |------------------------------------------------|
// *        |     dnwell/psub     |          dnwd11ll        | 
// *        *------------------------------------------------*
// *        |     nwell/psub      |parasitic_nwd | (na)      |
// *        |------------------------------------------------|
// *        |    rwell/dnwell     |parasitic_rwd | (na)      |
// *        |------------------------------------------------|
// *        |     dnwell/psub     |parasitic_dnwd| (na)      |
// *        *------------------------------------------------*
// *
// *   the valid temperature range is from -40c to 125c
// *
// ***********************************************************************************
// *                            1.1v n+/pwell diode model                            *
// ***********************************************************************************
// *
model ndio11ll diode
+level = 1 allow_scaling = yes dskip = no imax = 1e20  minr = 1e-6 ibv = 277.8 
+is = dis_ndio11ll+1.71349e-8 isw = djsw_ndio11ll+2.56848e-14 n = dn_ndio11ll+0.92934 ns = dn_ndio11ll+0.92934 
+rs = 1.66844e-10 vb = 9.3 area = 3.6e-9 
+perim = 2.4e-4 jtun = 0 jtunsw = 0 
+ntun = 30 
+tt = 0 cjo = dcj_ndio11ll+1.473228e-3 vj = 0.458831 
+mj = 0.258409 fc = 0 
+cjsw = dcjsw_ndio11ll+5.14781e-11 mjsw = 0.22454 vjsw = 0.9848 
+tlev = 1 tlevc = 1 tnom = 25 
+eg = 1.11 gap1 = 7.02e-4 gap2 = 1.108e3 
+xti = 3.38 cta = 5.575224e-4 ctp = 9.706073e-3 
+tcv = 0 tm1 = 0 tm2 = 0 
+pta = 7.97258e-4 ptp = 1.69169e-3 trs = 4.783111e-3 
+ttt1 = 0 ttt2 = 0 xtitun = 3 
// *
// ************************************************************************************
// *                            1.1v n+/pwell hvt diode model                        *
// ***********************************************************************************
// *
model ndio11llhvt diode
+level = 1 allow_scaling = yes dskip = no imax = 1e20  minr = 1e-6 ibv = 277.8 
+is = dis_ndio11llhvt+1.85973e-8 isw = djsw_ndio11llhvt+9.1548e-15 n = dn_ndio11llhvt+0.893926 ns = dn_ndio11llhvt+0.893926 
+rs = 1.965497e-10 vb = 9.3 area = 3.6e-9 
+perim = 2.4e-4 jtun = 0 jtunsw = 0 
+ntun = 30 
+tt = 0 cjo = dcj_ndio11llhvt+1.504653e-3 vj = 0.495432 
+mj = 0.271939 fc = 0 
+cjsw = dcjsw_ndio11llhvt+5.701237e-11 mjsw = 0.279405 vjsw = 0.93907 
+tlev = 1 tlevc = 1 tnom = 25 
+eg = 1.11 gap1 = 7.02e-4 gap2 = 1.108e3 
+xti = 4.88 cta = 8.055109e-4 ctp = 1.053088e-3 
+tcv = 0 tm1 = 0 tm2 = 0 
+pta = 1.194821e-3 ptp = 4.67432e-4 trs = 4.794471e-3 
+ttt1 = 0 ttt2 = 0 xtitun = 3 
// *
// ***********************************************************************************
// *                            1.1v n+/pwell lvt diode model                        *
// ***********************************************************************************
// *
model ndio11lllvt diode
+level = 1 allow_scaling = yes dskip = no imax = 1e20  minr = 1e-6 ibv = 277.8 
+is = dis_ndio11lllvt+2.192675e-8 isw = djsw_ndio11lllvt+1.66848e-14 n = dn_ndio11lllvt+0.916382 ns = dn_ndio11lllvt+0.916382 
+rs = 1.824127e-10 vb = 9.3 area = 3.6e-9 
+perim = 2.4e-4 jtun = 0 jtunsw = 0 
+ntun = 30 
+tt = 0 cjo = dcj_ndio11lllvt+1.497809e-3 vj = 0.535463 
+mj = 0.27193 fc = 0 
+cjsw = dcjsw_ndio11lllvt+5.010512e-11 mjsw = 0.202349 vjsw = 0.932 
+tlev = 1 tlevc = 1 tnom = 25 
+eg = 1.11 gap1 = 7.02e-4 gap2 = 1.108e3 
+xti = 3.38 cta = 6.308669e-4 ctp = 6.440152e-4 
+tcv = 0 tm1 = 0 tm2 = 0 
+pta = 9.569575e-4 ptp = 1.128011e-3 trs = 5.178787e-4 
+ttt1 = 0 ttt2 = 0 xtitun = 3 
// *
// ***********************************************************************************
// *                            2.5v n+/pwell diode model                            *
// ***********************************************************************************
// *
model ndio25ll diode
+level = 1 allow_scaling = yes dskip = no imax = 1e20  minr = 1e-6 ibv = 277.8 
+is = dis_ndio25ll+2.308258e-7 isw = djsw_ndio25ll+1.01297e-13 n = dn_ndio25ll+0.980683 ns = dn_ndio25ll+0.980683 
+rs = 1.388665e-10 vb = 9.45 area = 3.6e-9 
+perim = 2.4e-4 
+cjo = dcj_ndio25ll+1.322092e-3 vj = 0.583233 mj = 0.236285 
+fc = 0 cjsw = dcjsw_ndio25ll+8.04844e-11 
+mjsw = 0.22034 vjsw = 0.392174 
+tlev = 1 tlevc = 1 tnom = 25 
+eg = 1.16 xti = 3 cta = 8.075215e-4 
+ctp = 3.398484e-4 pta = 1.578537e-3 ptp = 6.48798e-4 
+trs = -6.5e-4 
// *
// ***********************************************************************************
// *                            1.1v p+/nwell diode model                            *
// ***********************************************************************************
// *
model pdio11ll diode
+level = 1 allow_scaling = yes dskip = no imax = 1e20  minr = 1e-6 ibv = 277.8 
+is = dis_pdio11ll+4.378592e-8 isw = djsw_pdio11ll+1.2e-13 n = dn_pdio11ll+0.999269 ns = dn_pdio11ll+0.999269 
+rs = 1.927372e-10 vb = 8.55 area = 3.6e-9 
+perim = 2.4e-4 jtun = 0 jtunsw = 0 
+ntun = 30 
+tt = 0 cjo = dcj_pdio11ll+1.410098e-3 vj = 0.789952 
+mj = 0.358642 fc = 0 
+cjsw = dcjsw_pdio11ll+5.495582e-11 mjsw = 0.122442 vjsw = 0.278277 
+tlev = 1 tlevc = 1 tnom = 25 
+eg = 1.11 gap1 = 7.02e-4 gap2 = 1.108e3 
+xti = 6.68536 cta = 7.072399e-4 ctp = 8.21187e-4 
+tcv = 0 tm1 = 0 tm2 = 0 
+pta = 1.306596e-3 ptp = 1.08e-3 trs = 4.090284e-3 
+ttt1 = 0 ttt2 = 0 xtitun = 3 
// *
// ***********************************************************************************
// *                            1.1v p+/nwell hvt diode model                        *
// ***********************************************************************************
// *
model pdio11llhvt diode
+level = 1 allow_scaling = yes dskip = no imax = 1e20  minr = 1e-6 ibv = 277.8 
+is = dis_pdio11llhvt+1.382677e-8 isw = djsw_pdio11llhvt+1.2e-13 n = dn_pdio11llhvt+0.967337 ns = dn_pdio11llhvt+0.967337 
+rs = 1.969881e-10 vb = 8.55 area = 3.6e-9 
+perim = 2.4e-4 jtun = 0 jtunsw = 0 
+ntun = 30 
+tt = 0 cjo = dcj_pdio11llhvt+1.398522e-3 vj = 0.785273 
+mj = 0.356722 fc = 0 
+cjsw = dcjsw_pdio11llhvt+5.240103e-11 mjsw = 9.66028e-2 vjsw = 0.397351 
+tlev = 1 tlevc = 1 tnom = 25 
+eg = 1.11 gap1 = 7.02e-4 gap2 = 1.108e3 
+xti = 6.68536 cta = 6.734626e-4 ctp = 2.832762e-3 
+tcv = 0 tm1 = 0 tm2 = 0 
+pta = 1.195637e-3 ptp = 1.3467e-3 trs = 1.523669e-3 
+ttt1 = 0 ttt2 = 0 xtitun = 3 
// *
// ************************************************************************************
// *                            1.1v p+/nwell lvt diode model                        *
// ***********************************************************************************
// *
model pdio11lllvt diode
+level = 1 allow_scaling = yes dskip = no imax = 1e20  minr = 1e-6 ibv = 277.8 
+is = dis_pdio11lllvt+1.418025e-8 isw = djsw_pdio11lllvt+1.2e-13 n = dn_pdio11lllvt+0.998267 ns = dn_pdio11lllvt+0.998267 
+rs = 1.9e-10 vb = 8.55 area = 3.6e-9 
+perim = 2.4e-4 jtun = 0 jtunsw = 0 
+ntun = 30 
+tt = 0 cjo = dcj_pdio11lllvt+1.404341e-3 vj = 0.730806 
+mj = 0.355864 fc = 0 
+cjsw = dcjsw_pdio11lllvt+5.484233e-11 mjsw = 0.231 vjsw = 0.98205 
+tlev = 1 tlevc = 1 tnom = 25 
+eg = 1.11 gap1 = 7.02e-4 gap2 = 1.108e3 
+xti = 6.68536 cta = 6.842681e-4 ctp = 3.489605e-4 
+tcv = 0 tm1 = 0 tm2 = 0 
+pta = 1.005803e-3 ptp = 1.967e-3 trs = 2.974752e-3 
+ttt1 = 0 ttt2 = 0 xtitun = 3 
// *
// ***********************************************************************************
// *                            2.5v p+/nwell diode model                            *
// ***********************************************************************************
// *
model pdio25ll diode
+level = 1 allow_scaling = yes dskip = no imax = 1e20  minr = 1e-6 ibv = 277.8 
+is = dis_pdio25ll+1.5934e-7 isw = djsw_pdio25ll+1.01297e-13 n = dn_pdio25ll+0.983873 ns = dn_pdio25ll+0.983873 
+rs = 1.18892e-10 vb = 8.55 area = 3.6e-9 
+perim = 2.4e-4 
+cjo = dcj_pdio25ll+1.23277e-3 vj = 0.728959 mj = 0.316785 
+fc = 0 cjsw = dcjsw_pdio25ll+5.792877e-11 
+mjsw = 0.178399 vjsw = 0.93005 
+tlev = 1 tlevc = 1 tnom = 25 
+eg = 1.16 xti = 3 cta = 8.478976e-4 
+ctp = 5.029756e-4 pta = 1.659304e-3 ptp = 2.82876e-3 
+trs = -5.395e-4 
// *
// ***********************************************************************************
// *                            1.1v native n+/psub diode model                     *
// ***********************************************************************************
// *
model ntdio11ll diode
+level = 1 allow_scaling = yes dskip = no imax = 1e20  minr = 1e-6 ibv = 277.8 
+is = dis_ntdio11ll+1.7981e-6 isw = djsw_ntdio11ll+1.34625e-13 n = dn_ntdio11ll+1.04436 ns = dn_ntdio11ll+1.04436 
+rs = 2.319845e-8 vb = 15.25 area = 3.6e-9 
+perim = 2.4e-4 jtun = 0 jtunsw = 0 
+ntun = 30 
+tt = 0 cjo = dcj_ntdio11ll+2.920893e-4 vj = 0.706508 
+mj = 0.164302 fc = 0 
+cjsw = dcjsw_ntdio11ll+2.937015e-11 mjsw = 0.17363 vjsw = 0.341208 
+tlev = 1 tlevc = 1 tnom = 25 
+eg = 1.11 gap1 = 7.02e-4 gap2 = 1.108e3 
+xti = 7.624005 cta = 5.6943e-4 ctp = 8.201018e-4 
+tcv = 0 tm1 = 0 tm2 = 0 
+pta = 2.270663e-3 ptp = 3.026661e-4 trs = 0.013 
+ttt1 = 0 ttt2 = 0 xtitun = 3 
// *
// ***********************************************************************************
// *                            2.5v native n+/pwell diode model                     *
// ***********************************************************************************
// *
model ntdio25ll diode
+level = 1 allow_scaling = yes dskip = no imax = 1e20  minr = 1e-6 ibv = 277.8 
+is = dis_ntdio25ll+1.38e-6 isw = djsw_ntdio25ll+4.59e-13 n = dn_ntdio25ll+0.991 ns = dn_ntdio25ll+0.991 
+rs = 1.501e-8 vb = 15.25 area = 3.6e-9 
+perim = 2.4e-4 
+cjo = dcj_ntdio25ll+3.278926e-4 vj = 0.585893 mj = 0.135308 
+fc = 0 cjsw = dcjsw_ntdio25ll+4.168795e-11 
+mjsw = 0.160048 vjsw = 0.182312 
+tlev = 1 tlevc = 1 tnom = 25 
+eg = 1.16 xti = 3 cta = 8.076552e-4 
+ctp = 1.857636e-3 pta = 2.821205e-3 ptp = 2.55e-4 
+trs = 8.592518e-3 
// *
// ************************************************************************************
// *                             nwell/psub diode model                               *
// ************************************************************************************
// *
model nwdioll diode
+level = 1 allow_scaling = yes dskip = no imax = 1e20  minr = 1e-6 ibv = 14.7 
+is = dis_nwdioll+3.554044e-8 isw = djsw_nwdioll+8.96673e-15 n = dn_nwdioll+0.798625 ns = dn_nwdioll+0.798625 
+rs = 3.534807e-8 vb = 11.7 area = 6.8e-8 
+perim = 1.14e-3 jtun = 0 jtunsw = 0 
+ntun = 30 
+tt = 0 cjo = dcj_nwdioll+3.930475e-4 vj = 0.58343 
+mj = 0.182957 fc = 0 
+cjsw = dcjsw_nwdioll+4.353507e-10 mjsw = 0.306795 vjsw = 0.829365 
+tlev = 1 tlevc = 1 tnom = 25 
+eg = 1.16 xti = 4.32865 cta = 1.439326e-3 
+ctp = 7.940107e-4 pta = 1.66519e-4 ptp = 2.089155e-3 
+trs = 9.149066e-3 
// *
// ***********************************************************************************
// *                             n+/rwell diode model                                *
// ***********************************************************************************
// *
model dnd11ll diode
+level = 1 allow_scaling = yes dskip = no imax = 1e20  minr = 1e-6 ibv = 167 
+is = dis_dnd11ll+3.577424e-8 isw = djsw_dnd11ll+2.56848e-14 n = dn_dnd11ll+0.92934 ns = dn_dnd11ll+0.92934 
+rs = 1.66844e-10 vb = 9.45 area = 6e-9 
+perim = 3.2e-4 jtun = 0 jtunsw = 0 
+ntun = 30 
+tt = 0 cjo = dcj_dnd11ll+1.269311e-3 vj = 0.585724 
+mj = 0.329274 fc = 0 
+cjsw = dcjsw_dnd11ll+3.303023e-11 mjsw = 0.284823 vjsw = 0.961025 
+tlev = 1 tlevc = 1 tnom = 25 
+eg = 1.11 gap1 = 7.02e-4 gap2 = 1.108e3 
+xti = 3 cta = 8.323178e-4 ctp = 3.189907e-4 
+tcv = 0 tm1 = 0 tm2 = 0 
+pta = 1.055336e-3 ptp = 2.30601e-3 trs = 4.876898e-3 
+ttt1 = 0 ttt2 = 0 xtitun = 3 
// *
// ***********************************************************************************
// *                        2.5v n+/rwell diode model                                *
// ***********************************************************************************
// *
model dnd25ll diode
+level = 1 allow_scaling = yes dskip = no imax = 1e20  minr = 1e-6 ibv = 166.67 
+is = dis_dnd25ll+1.808258e-7 isw = djsw_dnd25ll+1.01297e-13 n = dn_dnd25ll+0.950683 ns = dn_dnd25ll+0.950683 
+rs = 1.388665e-10 vb = 9.45 area = 6e-9 
+perim = 3.2e-4 
+cjo = dcj_dnd25ll+1.136073e-3 vj = 0.705157 mj = 0.301 
+fc = 0 cjsw = dcjsw_dnd25ll+7.175469e-11 
+mjsw = 0.233238 vjsw = 0.32428 
+tlev = 1 tlevc = 1 tnom = 25 
+eg = 1.16 xti = 3 cta = 8.401407e-4 
+ctp = 1.889887e-4 pta = 1.723563e-3 ptp = 3.68184e-5 
+trs = 1.8e-4 
// *
// ***********************************************************************************
// *                             rwell/dnwell diode model                            *
// ***********************************************************************************
// *
model rwd11ll diode
+level = 1 allow_scaling = yes dskip = no imax = 1e20  minr = 1e-6 ibv = 277.8 
+is = dis_rwd11ll+3.778926e-6 isw = djsw_rwd11ll+5.041e-15 n = dn_rwd11ll+1.105655 ns = dn_rwd11ll+1.105655 
+rs = 3.856188e-8 vb = 11.25 area = 6e-9 
+perim = 3.2e-4 
+cjo = dcj_rwd11ll+4.235641e-4 vj = 0.930769 mj = 0.813276 
+fc = 0 cjsw = dcjsw_rwd11ll+1.725468e-9 
+mjsw = 0.141306 vjsw = 0.973236 
+tlev = 1 tlevc = 1 tnom = 25 
+eg = 1.16 xti = 3 cta = 1.01927e-3 
+ctp = 6.709302e-4 pta = 1.387259e-3 ptp = 5.492691e-4 
+trs = 8.668012e-3 
// *
// ************************************************************************************
// *                             dnwell/psub diode model                             *
// ***********************************************************************************
// *
model dnwd11ll diode
+level = 1 allow_scaling = yes dskip = no imax = 1e20  minr = 1e-6 ibv = 166.7 
+is = dis_dnwd11ll+1.90515e-6 isw = djsw_dnwd11ll+7.01e-12 n = dn_dnwd11ll+1 ns = dn_dnwd11ll+1 
+rs = 3.97562e-8 vb = 11.7 area = 6e-9 
+perim = 3.2e-4 
+cjo = dcj_dnwd11ll+2.663317e-4 vj = 0.301545 mj = 0.170356 
+fc = 0 cjsw = dcjsw_dnwd11ll+9.916506e-10 
+mjsw = 0.814658 vjsw = 0.961115 
+tlev = 1 tlevc = 1 tnom = 25 
+eg = 1.16 xti = 3 cta = 5.514434e-4 
+ctp = 1.571847e-3 pta = 3.909587e-4 ptp = 1.88464e-3 
+trs = 6.075878e-3 
// *
// ************************************************************************************
// *                             nwell/psub diode model                               *
// ************************************************************************************
// *
model parasitic_nwd diode
+level = 1 allow_scaling = yes dskip = no imax = 1e20  minr = 1e-6 ibv = 14.7 
+is = dis_nwdioll+3.554044e-8 isw = djsw_nwdioll+8.96673e-15 n = dn_nwdioll+0.798625 ns = dn_nwdioll+0.798625 
+rs = 3.534807e-8 vb = 11.7 area = 6.8e-8 
+perim = 1.14e-3 jtun = 0 jtunsw = 0 
+ntun = 30 
+tt = 0 cjo = dcj_nwdioll+3.930475e-4 vj = 0.58343 
+mj = 0.182957 fc = 0 
+cjsw = dcjsw_nwdioll+4.353507e-10 mjsw = 0.306795 vjsw = 0.829365 
+tlev = 1 tlevc = 1 tnom = 25 
+eg = 1.16 xti = 4.32865 cta = 1.439326e-3 
+ctp = 7.940107e-4 pta = 1.66519e-4 ptp = 2.089155e-3 
+trs = 9.149066e-3 
// *
// ***********************************************************************************
// *                             rwell/dnwell diode model                            *
// ***********************************************************************************
// *
model parasitic_rwd diode
+level = 1 allow_scaling = yes dskip = no imax = 1e20  minr = 1e-6 ibv = 277.8 
+is = dis_rwd11ll+3.778926e-6 isw = djsw_rwd11ll+5.041e-15 n = dn_rwd11ll+1.105655 ns = dn_rwd11ll+1.105655 
+rs = 3.856188e-8 vb = 11.25 area = 6e-9 
+perim = 3.2e-4 
+cjo = dcj_rwd11ll+4.235641e-4 vj = 0.930769 mj = 0.813276 
+fc = 0 cjsw = dcjsw_rwd11ll+1.725468e-9 
+mjsw = 0.141306 vjsw = 0.973236 
+tlev = 1 tlevc = 1 tnom = 25 
+eg = 1.16 xti = 3 cta = 1.01927e-3 
+ctp = 6.709302e-4 pta = 1.387259e-3 ptp = 5.492691e-4 
+trs = 8.668012e-3 
// *
// ************************************************************************************
// *                             dnwell/psub diode model                             *
// ***********************************************************************************
// *
model parasitic_dnwd diode
+level = 1 allow_scaling = yes dskip = no imax = 1e20  minr = 1e-6 ibv = 166.7 
+is = dis_dnwd11ll+1.90515e-6 isw = djsw_dnwd11ll+7.01e-12 n = dn_dnwd11ll+1 ns = dn_dnwd11ll+1 
+rs = 3.97562e-8 vb = 11.7 area = 6e-9 
+perim = 3.2e-4 
+cjo = dcj_dnwd11ll+2.663317e-4 vj = 0.301545 mj = 0.170356 
+fc = 0 cjsw = dcjsw_dnwd11ll+9.916506e-10 
+mjsw = 0.814658 vjsw = 0.961115 
+tlev = 1 tlevc = 1 tnom = 25 
+eg = 1.16 xti = 3 cta = 5.514434e-4 
+ctp = 1.571847e-3 pta = 3.909587e-4 ptp = 1.88464e-3 
+trs = 6.075878e-3 
// *