//****pod33ll lpe model parameter **********************


simulator lang=spectre  insensitive=yes
parameters 
+scale_=0.9
+w_=(scale_*w/1e-6) l_=(scale_*l/1e-6) dps_=(scale_*dps/1.0e-6) dpcs_=(scale_*dpcs/1.0e-6) dsts_=(scale_*dsts/1.0e-6) 
parameters  dvdps_a=0    dvdps_b=0    dvdps_c=0    mudps_a=0
parameters  mudps_b=0    mudps_c=1    dvdpcs_a=0    dvdpcs_b=1
parameters  dvdpcs_c=0    mudpcs_a=0    mudpcs_b=1    mudpcs_c=1
parameters  dvdsts_a=0    dvdsts_b=0    dvdsts_c=0    mudsts_a=0
parameters  mudsts_b=0    mudsts_c=1
parameters  mu_dps=(mudps_a*(dps_-mudps_b) + mudps_c)
parameters  mu_dpcs=(mudpcs_a*(dpcs_-mudpcs_b) + mudpcs_c)
parameters  mu_dsts=(mudsts_a*(dsts_-mudsts_b) + mudsts_c)
parameters  _mulu0=(mu_dps*mu_dpcs*mu_dsts)
parameters  _mulu0_b=0.25    _mulu0_a=1
*** mulu0 parameter mapping: _u0_*(_mulu0_b*(_mulu0-1)+_mulu0_a)
parameters  dv_dps=(dvdps_a*(dps_-dvdps_b) + dvdps_c)
parameters  dv_dpcs=(dvdpcs_a*(dpcs_-dvdpcs_b) + dvdpcs_c)
parameters  dv_dsts=(dvdsts_a*(dsts_-dvdsts_b) + dvdsts_c)
parameters  _delvto=((dv_dps+dv_dpcs+dv_dsts)/1000)
parameters  _delvto_a=-0.3    _delvto_b=0
*** delvto parameter mapping: _vth0_+_delvto_a*_delvto+_delvto_b
+lpevth0_pod33ll=(((_delvto_a*_delvto+_delvto_b+_delvto)*lpemod))
+lpeu0_pod33ll=((pwr((_mulu0*(_mulu0_b*(_mulu0-1)+_mulu0_a)),lpemod)))
+lpelu0_pod33ll=((pwr((_mulu0*(_mulu0_b*(_mulu0-1)+_mulu0_a)),lpemod)))
+lpewu0_pod33ll=((pwr((_mulu0*(_mulu0_b*(_mulu0-1)+_mulu0_a)),lpemod)))
+lpepu0_pod33ll=((pwr((_mulu0*(_mulu0_b*(_mulu0-1)+_mulu0_a)),lpemod)))