//*Spectre Model Format
simulator lang=spectre  insensitive=yes

// *
// * no part of this file can be released without the consent of smic.
// *
// *****************************************************************************************
// *         smic 0.18um mixed signal 1p6m 1.8v/3.3v spice model (for spectre only)        *
// *****************************************************************************************
// *
// * release version    : 1.7
// *
// * release date       : 12/13/2005
// *
// * simulation tool    : Cadence spectre V4.4.6
// *
// *   mim capacitor    : mim
// *
// *   valid temperature range is from -55c to 125c
// *
// *
// ******************************************************************
// *                      mim capacitor                             *
// ******************************************************************
model mim capacitor
+coeffs = [-3.41e-5 -1.49e-5]
+tc1 = -3.48e-5  tnom = 25
+cj = 9.71e-4+dmim
// *
