//*Spectre Model Format
simulator lang=spectre  insensitive=yes

// *
// * no part of this file can be released without the consent of smic.
// *
// *****************************************************************************************
// *         smic 0.18um Radio Frequency 1p6m 1.8v/3.3v spice model (for spectre only)        *
// *****************************************************************************************
// *
// * release version    : 1.6
// *
// * release date       : 5/24/2006
// *
// * simulation tool    : Cadence spectre V6.0
// *
// *   resistor         :
//*        *--------------------------------------------------------* 
//*        |             Resistor Type                | 1.8V/3.3V   |
//*        |==========================================|=============|
//*        |                  Metal 6                 |    rm6_rf   |
//*        *--------------------------------------------------------* 
// *
// *    valid temperature range is from -40c to 125c
// *
// ******************************************************************
// *                         resistor model                         *
// ******************************************************************

// ******************************************************************
// *                      metal 6 resistance                        *
// ******************************************************************
model rm6_rf resistor
// *metal resistor
+tc1 = 3.78E-03      tc2 = -3.83E-07               etch = -5.6494E-09+ddw_rm6_rf 
+tnom  = 25          rsh = 0.0145+drsh_rm6_rf
// *
