.subckt AND02 B A VDD Y GND
M1 N_8 A N_2 GND mn5  l=0.5u w=0.58u m=1
M2 N_8 B GND GND mn5  l=0.5u w=0.58u m=1
M3 Y N_2 GND GND mn5  l=0.5u w=0.58u m=1
M4 N_2 A VDD VDD mp5  l=0.42u w=0.52u m=1
M5 N_2 B VDD VDD mp5  l=0.42u w=0.52u m=1
M6 Y N_2 VDD VDD mp5  l=0.42u w=0.76u m=1
.ends AND02

.subckt AND03 C B A Y GND VDD
M1 N_9 A N_2 GND mn5  l=0.5u w=0.58u m=1
M2 N_10 B N_9 GND mn5  l=0.5u w=0.58u m=1
M3 N_10 C GND GND mn5  l=0.5u w=0.58u m=1
M4 Y N_2 GND GND mn5  l=0.5u w=0.58u m=1
M5 N_2 A VDD VDD mp5  l=0.42u w=0.52u m=1
M6 N_2 B VDD VDD mp5  l=0.42u w=0.52u m=1
M7 N_2 C VDD VDD mp5  l=0.42u w=0.52u m=1
M8 Y N_2 VDD VDD mp5  l=0.42u w=0.76u m=1
.ends AND03

.subckt AND04  GND Y VDD D C B A
M1 N_6 A N_4 GND mn5  l=0.5u w=0.58u m=1
M2 N_7 B N_6 GND mn5  l=0.5u w=0.58u m=1
M3 N_8 C N_7 GND mn5  l=0.5u w=0.58u m=1
M4 N_8 D GND GND mn5  l=0.5u w=0.58u m=1
M5 Y N_4 GND GND mn5  l=0.5u w=0.58u m=1
M6 N_4 A VDD VDD mp5  l=0.42u w=0.52u m=1
M7 N_4 B VDD VDD mp5  l=0.42u w=0.52u m=1
M8 N_4 C VDD VDD mp5  l=0.42u w=0.52u m=1
M9 N_4 D VDD VDD mp5  l=0.42u w=0.52u m=1
M10 Y N_4 VDD VDD mp5  l=0.42u w=0.76u m=1
.ends AND04 

.subckt AND12  B AN GND VDD Y
M1 N_4 AN GND GND mn5  l=0.5u w=0.5u m=1
M2 N_14 N_4 N_2 GND mn5  l=0.5u w=0.5u m=1
M3 N_14 B GND GND mn5  l=0.5u w=0.5u m=1
M4 Y N_2 GND GND mn5  l=0.5u w=0.58u m=1
M5 N_4 AN VDD VDD mp5  l=0.42u w=0.52u m=1
M6 N_2 N_4 VDD VDD mp5  l=0.42u w=0.52u m=1
M7 N_2 B VDD VDD mp5  l=0.42u w=0.52u m=1
M8 Y N_2 VDD VDD mp5  l=0.42u w=0.76u m=1
.ends AND12 

.subckt AND13  C B AN VDD GND Y
M1 Y N_6 GND GND mn5  l=0.5u w=0.58u m=1
M2 N_4 AN GND GND mn5  l=0.5u w=0.5u m=1
M3 N_11 N_4 N_6 GND mn5  l=0.5u w=0.5u m=1
M4 N_11 B N_10 GND mn5  l=0.5u w=0.5u m=1
M5 N_10 C GND GND mn5  l=0.5u w=0.5u m=1
M6 Y N_6 VDD VDD mp5  l=0.42u w=0.76u m=1
M7 N_4 AN VDD VDD mp5  l=0.42u w=0.52u m=1
M8 N_6 N_4 VDD VDD mp5  l=0.42u w=0.52u m=1
M9 N_6 B VDD VDD mp5  l=0.42u w=0.52u m=1
M10 N_6 C VDD VDD mp5  l=0.42u w=0.52u m=1
.ends AND13 

.subckt AND23  C BN AN GND VDD Y
M1 N_5 AN GND GND mn5  l=0.5u w=0.5u m=1
M2 N_4 BN GND GND mn5  l=0.5u w=0.5u m=1
M3 N_11 N_5 N_2 GND mn5  l=0.5u w=0.5u m=1
M4 N_12 N_4 N_11 GND mn5  l=0.5u w=0.5u m=1
M5 N_12 C GND GND mn5  l=0.5u w=0.5u m=1
M6 Y N_2 GND GND mn5  l=0.5u w=0.58u m=1
M7 N_5 AN VDD VDD mp5  l=0.42u w=0.52u m=1
M8 N_4 BN VDD VDD mp5  l=0.42u w=0.52u m=1
M9 N_2 N_5 VDD VDD mp5  l=0.42u w=0.52u m=1
M10 N_2 N_4 VDD VDD mp5  l=0.42u w=0.52u m=1
M11 N_2 C VDD VDD mp5  l=0.42u w=0.52u m=1
M12 Y N_2 VDD VDD mp5  l=0.42u w=0.76u m=1
.ends AND23 

.subckt NAND02 VDD Y GND B A
M1 Y A N_8 GND mn5  l=0.5u w=0.58u m=1
M2 N_8 B GND GND mn5  l=0.5u w=0.58u m=1
M3 Y A VDD VDD mp5  l=0.42u w=0.76u m=1
M4 Y B VDD VDD mp5  l=0.42u w=0.76u m=1
.ends NAND02

.subckt NAND03 A B C VDD GND Y
M1 N_9 C GND GND mn5  l=0.5u w=0.58u m=1
M2 N_9 B N_8 GND mn5  l=0.5u w=0.58u m=1
M3 Y A N_8 GND mn5  l=0.5u w=0.58u m=1
M4 Y C VDD VDD mp5  l=0.42u w=0.76u m=1
M5 Y B VDD VDD mp5  l=0.42u w=0.76u m=1
M6 Y A VDD VDD mp5  l=0.42u w=0.76u m=1
.ends NAND03

.subckt NAND04 GND Y VDD A B C D
M1 N_6 D GND GND mn5  l=0.5u w=0.58u m=1
M2 N_7 C N_6 GND mn5  l=0.5u w=0.58u m=1
M3 N_7 B N_5 GND mn5  l=0.5u w=0.58u m=1
M4 Y A N_5 GND mn5  l=0.5u w=0.58u m=1
M5 Y D VDD VDD mp5  l=0.42u w=0.76u m=1
M6 Y C VDD VDD mp5  l=0.42u w=0.76u m=1
M7 Y B VDD VDD mp5  l=0.42u w=0.76u m=1
M8 Y A VDD VDD mp5  l=0.42u w=0.76u m=1
.ends NAND04

.subckt NAND12 B AN Y VDD GND
M1 Y N_4 N_12 GND mn5  l=0.5u w=0.58u m=1
M2 N_4 AN GND GND mn5  l=0.5u w=0.5u m=1
M3 N_12 B GND GND mn5  l=0.5u w=0.58u m=1
M4 Y N_4 VDD VDD mp5  l=0.42u w=0.76u m=1
M5 N_4 AN VDD VDD mp5  l=0.42u w=0.52u m=1
M6 Y B VDD VDD mp5  l=0.42u w=0.76u m=1
.ends NAND12

.subckt NAND13 C AN B Y VDD GND
M1 Y N_5 N_9 GND mn5  l=0.5u w=0.58u m=1
M2 N_10 B N_9 GND mn5  l=0.5u w=0.58u m=1
M3 N_5 AN GND GND mn5  l=0.5u w=0.5u m=1
M4 N_10 C GND GND mn5  l=0.5u w=0.58u m=1
M5 Y N_5 VDD VDD mp5  l=0.42u w=0.76u m=1
M6 Y B VDD VDD mp5  l=0.42u w=0.76u m=1
M7 N_5 AN VDD VDD mp5  l=0.42u w=0.52u m=1
M8 Y C VDD VDD mp5  l=0.42u w=0.76u m=1
.ends NAND13

.subckt NAND14 GND Y VDD B C D AN
M1 N_8 B N_6 GND mn5  l=0.5u w=0.58u m=1
M2 N_8 C N_7 GND mn5  l=0.5u w=0.58u m=1
M3 N_7 D GND GND mn5  l=0.5u w=0.58u m=1
M4 N_4 AN GND GND mn5  l=0.5u w=0.5u m=1
M5 Y N_4 N_6 GND mn5  l=0.5u w=0.58u m=1
M6 Y B VDD VDD mp5  l=0.42u w=0.76u m=1
M7 Y C VDD VDD mp5  l=0.42u w=0.76u m=1
M8 Y D VDD VDD mp5  l=0.42u w=0.76u m=1
M9 N_4 AN VDD VDD mp5  l=0.42u w=0.52u m=1
M10 Y N_4 VDD VDD mp5  l=0.42u w=0.76u m=1
.ends NAND14

.subckt NAND23 AN C BN GND Y VDD
M1 N_4 BN GND GND mn5  l=0.5u w=0.5u m=1
M2 Y N_5 N_11 GND mn5  l=0.5u w=0.58u m=1
M3 N_11 N_4 N_10 GND mn5  l=0.5u w=0.58u m=1
M4 N_10 C GND GND mn5  l=0.5u w=0.58u m=1
M5 N_5 AN GND GND mn5  l=0.5u w=0.5u m=1
M6 N_4 BN VDD VDD mp5  l=0.42u w=0.52u m=1
M7 Y N_5 VDD VDD mp5  l=0.42u w=0.76u m=1
M8 Y N_4 VDD VDD mp5  l=0.42u w=0.76u m=1
M9 Y C VDD VDD mp5  l=0.42u w=0.76u m=1
M10 N_5 AN VDD VDD mp5  l=0.42u w=0.52u m=1
.ends NAND23

.subckt NAND24 GND Y VDD D AN C BN
M1 N_3 BN GND GND mn5  l=0.5u w=0.5u m=1
M2 Y N_4 N_9 GND mn5  l=0.5u w=0.58u m=1
M3 N_9 N_3 N_8 GND mn5  l=0.5u w=0.58u m=1
M4 N_8 C N_7 GND mn5  l=0.5u w=0.58u m=1
M5 N_7 D GND GND mn5  l=0.5u w=0.58u m=1
M6 N_4 AN GND GND mn5  l=0.5u w=0.5u m=1
M7 N_3 BN VDD VDD mp5  l=0.42u w=0.52u m=1
M8 Y N_4 VDD VDD mp5  l=0.42u w=0.76u m=1
M9 Y N_3 VDD VDD mp5  l=0.42u w=0.76u m=1
M10 Y C VDD VDD mp5  l=0.42u w=0.76u m=1
M11 Y D VDD VDD mp5  l=0.42u w=0.76u m=1
M12 N_4 AN VDD VDD mp5  l=0.42u w=0.52u m=1
.ends NAND24

.subckt NOR02 GND Y VDD B A
M1 Y A GND GND mn5  l=0.5u w=0.58u m=1
M2 Y B GND GND mn5  l=0.5u w=0.58u m=1
M3 N_7 A VDD VDD mp5  l=0.42u w=0.76u m=1
M4 Y B N_7 VDD mp5  l=0.42u w=0.76u m=1
.ends NOR02

.subckt NOR03 A B C GND VDD Y
M1 Y C GND GND mn5  l=0.5u w=0.58u m=1
M2 Y B GND GND mn5  l=0.5u w=0.58u m=1
M3 Y A GND GND mn5  l=0.5u w=0.58u m=1
M4 Y C N_11 VDD mp5  l=0.42u w=0.76u m=1
M5 N_12 B N_11 VDD mp5  l=0.42u w=0.76u m=1
M6 N_12 A VDD VDD mp5  l=0.42u w=0.76u m=1
.ends NOR03

.subckt NOR04 A B C D GND VDD Y
M1 Y D GND GND mn5  l=0.5u w=0.58u m=1
M2 Y C GND GND mn5  l=0.5u w=0.58u m=1
M3 Y B GND GND mn5  l=0.5u w=0.58u m=1
M4 Y A GND GND mn5  l=0.5u w=0.58u m=1
M5 Y D N_12 VDD mp5  l=0.42u w=0.76u m=1
M6 N_14 C N_12 VDD mp5  l=0.42u w=0.76u m=1
M7 N_14 B N_13 VDD mp5  l=0.42u w=0.76u m=1
M8 N_13 A VDD VDD mp5  l=0.42u w=0.76u m=1
.ends NOR04

.subckt NOR12 B AN GND VDD Y
M1 N_2 AN GND GND mn5  l=0.5u w=0.5u m=1
M2 Y B GND GND mn5  l=0.5u w=0.58u m=1
M3 Y N_2 GND GND mn5  l=0.5u w=0.58u m=1
M4 N_2 AN VDD VDD mp5  l=0.42u w=0.52u m=1
M5 Y B N_12 VDD mp5  l=0.42u w=0.76u m=1
M6 N_12 N_2 VDD VDD mp5  l=0.42u w=0.76u m=1
.ends NOR12

.subckt NOR13 C B AN GND VDD Y
M1 N_4 AN GND GND mn5  l=0.5u w=0.5u m=1
M2 Y N_4 GND GND mn5  l=0.5u w=0.58u m=1
M3 Y B GND GND mn5  l=0.5u w=0.58u m=1
M4 Y C GND GND mn5  l=0.5u w=0.58u m=1
M5 N_4 AN VDD VDD mp5  l=0.42u w=0.52u m=1
M6 N_10 N_4 VDD VDD mp5  l=0.42u w=0.76u m=1
M7 N_10 B N_9 VDD mp5  l=0.42u w=0.76u m=1
M8 Y C N_9 VDD mp5  l=0.42u w=0.76u m=1
.ends NOR13

.subckt NOR14 D C B AN GND VDD Y
M1 N_5 AN GND GND mn5  l=0.5u w=0.5u m=1
M2 Y N_5 GND GND mn5  l=0.5u w=0.58u m=1
M3 Y B GND GND mn5  l=0.5u w=0.58u m=1
M4 Y C GND GND mn5  l=0.5u w=0.58u m=1
M5 Y D GND GND mn5  l=0.5u w=0.58u m=1
M6 N_5 AN VDD VDD mp5  l=0.42u w=0.52u m=1
M7 N_11 N_5 VDD VDD mp5  l=0.42u w=0.76u m=1
M8 N_12 B N_11 VDD mp5  l=0.42u w=0.76u m=1
M9 N_12 C N_10 VDD mp5  l=0.42u w=0.76u m=1
M10 Y D N_10 VDD mp5  l=0.42u w=0.76u m=1
.ends NOR14

.subckt NOR23 C AN BN GND VDD Y
M1 N_3 BN GND GND mn5  l=0.5u w=0.5u m=1
M2 N_4 AN GND GND mn5  l=0.5u w=0.5u m=1
M3 Y N_4 GND GND mn5  l=0.5u w=0.58u m=1
M4 Y N_3 GND GND mn5  l=0.5u w=0.58u m=1
M5 Y C GND GND mn5  l=0.5u w=0.58u m=1
M6 N_3 BN VDD VDD mp5  l=0.42u w=0.52u m=1
M7 N_4 AN VDD VDD mp5  l=0.42u w=0.52u m=1
M8 N_11 N_4 VDD VDD mp5  l=0.42u w=0.76u m=1
M9 N_11 N_3 N_10 VDD mp5  l=0.42u w=0.76u m=1
M10 Y C N_10 VDD mp5  l=0.42u w=0.76u m=1
.ends NOR23

.subckt NOR24 D C AN BN Y VDD GND
M1 N_4 BN GND GND mn5  l=0.5u w=0.5u m=1
M2 N_5 AN GND GND mn5  l=0.5u w=0.5u m=1
M3 Y N_5 GND GND mn5  l=0.5u w=0.58u m=1
M4 Y N_4 GND GND mn5  l=0.5u w=0.58u m=1
M5 Y C GND GND mn5  l=0.5u w=0.58u m=1
M6 Y D GND GND mn5  l=0.5u w=0.58u m=1
M7 N_4 BN VDD VDD mp5  l=0.42u w=0.52u m=1
M8 N_5 AN VDD VDD mp5  l=0.42u w=0.52u m=1
M9 N_12 N_5 VDD VDD mp5  l=0.42u w=0.76u m=1
M10 N_13 N_4 N_12 VDD mp5  l=0.42u w=0.76u m=1
M11 N_13 C N_11 VDD mp5  l=0.42u w=0.76u m=1
M12 Y D N_11 VDD mp5  l=0.42u w=0.76u m=1
.ends NOR24

.subckt OR02 A B VDD GND Y
M1 N_2 B GND GND mn5  l=0.5u w=0.5u m=1
M2 N_2 A GND GND mn5  l=0.5u w=0.5u m=1
M3 Y N_2 GND GND mn5  l=0.5u w=0.58u m=1
M4 N_12 B N_2 VDD mp5  l=0.42u w=0.52u m=1
M5 N_12 A VDD VDD mp5  l=0.42u w=0.52u m=1
M6 Y N_2 VDD VDD mp5  l=0.42u w=0.76u m=1
.ends OR02

.subckt OR03 B A C GND VDD Y
M1 N_3 C GND GND mn5  l=0.5u w=0.5u m=1
M2 N_3 A GND GND mn5  l=0.5u w=0.5u m=1
M3 Y N_3 GND GND mn5  l=0.5u w=0.58u m=1
M4 N_3 B GND GND mn5  l=0.5u w=0.5u m=1
M5 N_13 C N_3 VDD mp5  l=0.42u w=0.52u m=1
M6 N_14 A VDD VDD mp5  l=0.42u w=0.52u m=1
M7 Y N_3 VDD VDD mp5  l=0.42u w=0.76u m=1
M8 N_14 B N_13 VDD mp5  l=0.42u w=0.52u m=1
.ends OR03

.subckt OR04 D A C B VDD Y GND
M1 N_2 B GND GND mn5  l=0.5u w=0.5u m=1
M2 N_2 C GND GND mn5  l=0.5u w=0.5u m=1
M3 N_2 A GND GND mn5  l=0.5u w=0.5u m=1
M4 N_2 D GND GND mn5  l=0.5u w=0.5u m=1
M5 Y N_2 GND GND mn5  l=0.5u w=0.58u m=1
M6 N_16 B N_15 VDD mp5  l=0.42u w=0.52u m=1
M7 N_15 C N_14 VDD mp5  l=0.42u w=0.52u m=1
M8 N_16 A VDD VDD mp5  l=0.42u w=0.52u m=1
M9 N_14 D N_2 VDD mp5  l=0.42u w=0.52u m=1
M10 Y N_2 VDD VDD mp5  l=0.42u w=0.76u m=1
.ends OR04

.subckt OR12 AN B Y VDD GND
M1 N_4 B GND GND mn5  l=0.5u w=0.5u m=1
M2 Y N_4 GND GND mn5  l=0.5u w=0.58u m=1
M3 N_2 AN GND GND mn5  l=0.5u w=0.5u m=1
M4 N_4 N_2 GND GND mn5  l=0.5u w=0.5u m=1
M5 N_14 B N_4 VDD mp5  l=0.42u w=0.52u m=1
M6 Y N_4 VDD VDD mp5  l=0.42u w=0.76u m=1
M7 N_2 AN VDD VDD mp5  l=0.42u w=0.52u m=1
M8 N_14 N_2 VDD VDD mp5  l=0.42u w=0.52u m=1
.ends OR12

.subckt OR13 AN C B GND VDD Y
M1 N_5 N_6 GND GND mn5  l=0.5u w=0.5u m=1
M2 Y N_5 GND GND mn5  l=0.5u w=0.58u m=1
M3 N_5 B GND GND mn5  l=0.5u w=0.5u m=1
M4 N_5 C GND GND mn5  l=0.5u w=0.5u m=1
M5 N_6 AN GND GND mn5  l=0.5u w=0.5u m=1
M6 N_15 N_6 VDD VDD mp5  l=0.42u w=0.52u m=1
M7 Y N_5 VDD VDD mp5  l=0.42u w=0.76u m=1
M8 N_16 B N_15 VDD mp5  l=0.42u w=0.52u m=1
M9 N_5 C N_16 VDD mp5  l=0.42u w=0.52u m=1
M10 N_6 AN VDD VDD mp5  l=0.42u w=0.52u m=1
.ends OR13

.subckt OR23 AN C BN Y VDD GND
M1 N_5 BN GND GND mn5  l=0.5u w=0.5u m=1
M2 N_2 C GND GND mn5  l=0.5u w=0.5u m=1
M3 N_2 N_5 GND GND mn5  l=0.5u w=0.5u m=1
M4 N_2 N_4 GND GND mn5  l=0.5u w=0.5u m=1
M5 N_4 AN GND GND mn5  l=0.5u w=0.5u m=1
M6 Y N_2 GND GND mn5  l=0.5u w=0.58u m=1
M7 N_5 BN VDD VDD mp5  l=0.42u w=0.52u m=1
M8 N_2 C N_18 VDD mp5  l=0.42u w=0.52u m=1
M9 N_18 N_5 N_17 VDD mp5  l=0.42u w=0.52u m=1
M10 N_17 N_4 VDD VDD mp5  l=0.42u w=0.52u m=1
M11 N_4 AN VDD VDD mp5  l=0.42u w=0.52u m=1
M12 Y N_2 VDD VDD mp5  l=0.42u w=0.76u m=1
.ends OR23

.subckt XNOR02 VDD Y GND A B
M1 Y N_6 GND GND mn5  l=0.5u w=0.58u m=1
M2 N_8 N_4 GND GND mn5  l=0.5u w=0.5u m=1
M3 N_8 N_5 N_6 GND mn5  l=0.5u w=0.5u m=1
M4 N_6 A N_4 GND mn5  l=0.5u w=0.5u m=1
M5 N_5 A GND GND mn5  l=0.5u w=0.5u m=1
M6 N_4 B GND GND mn5  l=0.5u w=0.5u m=1
M7 Y N_6 VDD VDD mp5  l=0.42u w=0.76u m=1
M8 N_8 N_4 VDD VDD mp5  l=0.42u w=0.52u m=1
M9 N_8 A N_6 VDD mp5  l=0.42u w=0.52u m=1
M10 N_5 A VDD VDD mp5  l=0.42u w=0.52u m=1
M11 N_4 N_5 N_6 VDD mp5  l=0.42u w=0.52u m=1
M12 N_4 B VDD VDD mp5  l=0.42u w=0.52u m=1
.ends XNOR02

.subckt XNOR03 VDD Y GND C A B
M1 N_12 N_11 N_6 GND mn5  l=0.5u w=0.5u m=1
M2 N_9 C N_12 GND mn5  l=0.5u w=0.5u m=1
M3 N_11 C GND GND mn5  l=0.5u w=0.5u m=1
M4 N_4 B N_6 GND mn5  l=0.5u w=0.5u m=1
M5 N_5 B N_9 GND mn5  l=0.5u w=0.5u m=1
M6 N_10 B GND GND mn5  l=0.5u w=0.5u m=1
M7 N_4 N_10 N_9 GND mn5  l=0.5u w=0.5u m=1
M8 N_6 N_10 N_5 GND mn5  l=0.5u w=0.5u m=1
M9 N_5 N_4 GND GND mn5  l=0.5u w=0.5u m=1
M10 Y N_12 GND GND mn5  l=0.5u w=0.58u m=1
M11 N_4 A GND GND mn5  l=0.5u w=0.5u m=1
M12 N_11 C VDD VDD mp5  l=0.42u w=0.52u m=1
M13 N_9 B N_4 VDD mp5  l=0.42u w=0.52u m=1
M14 N_6 B N_5 VDD mp5  l=0.42u w=0.52u m=1
M15 N_10 B VDD VDD mp5  l=0.42u w=0.52u m=1
M16 N_9 N_10 N_5 VDD mp5  l=0.42u w=0.52u m=1
M17 N_4 N_10 N_6 VDD mp5  l=0.42u w=0.52u m=1
M18 N_5 N_4 VDD VDD mp5  l=0.42u w=0.52u m=1
M19 Y N_12 VDD VDD mp5  l=0.42u w=0.76u m=1
M20 N_4 A VDD VDD mp5  l=0.42u w=0.52u m=1
M21 N_6 C N_12 VDD mp5  l=0.42u w=0.52u m=1
M22 N_9 N_11 N_12 VDD mp5  l=0.42u w=0.52u m=1
.ends XNOR03

.subckt XOR02 VDD Y GND B A
M1 N_5 A GND GND mn5  l=0.5u w=0.5u m=1
M2 N_4 B GND GND mn5  l=0.5u w=0.5u m=1
M3 Y N_6 GND GND mn5  l=0.5u w=0.58u m=1
M4 N_8 N_4 GND GND mn5  l=0.5u w=0.5u m=1
M5 N_8 A N_6 GND mn5  l=0.5u w=0.5u m=1
M6 N_6 N_5 N_4 GND mn5  l=0.5u w=0.5u m=1
M7 N_4 A N_6 VDD mp5  l=0.42u w=0.52u m=1
M8 N_5 A VDD VDD mp5  l=0.42u w=0.52u m=1
M9 N_4 B VDD VDD mp5  l=0.42u w=0.52u m=1
M10 Y N_6 VDD VDD mp5  l=0.42u w=0.76u m=1
M11 N_8 N_4 VDD VDD mp5  l=0.42u w=0.52u m=1
M12 N_8 N_5 N_6 VDD mp5  l=0.42u w=0.52u m=1
.ends XOR02

.subckt XOR03 VDD Y GND C A B
M1 N_9 N_11 N_12 GND mn5  l=0.5u w=0.5u m=1
M2 N_12 C N_6 GND mn5  l=0.5u w=0.5u m=1
M3 N_4 B N_6 GND mn5  l=0.5u w=0.5u m=1
M4 N_5 B N_9 GND mn5  l=0.5u w=0.5u m=1
M5 N_10 B GND GND mn5  l=0.5u w=0.5u m=1
M6 N_4 N_10 N_9 GND mn5  l=0.5u w=0.5u m=1
M7 N_6 N_10 N_5 GND mn5  l=0.5u w=0.5u m=1
M8 Y N_12 GND GND mn5  l=0.5u w=0.58u m=1
M9 N_4 A GND GND mn5  l=0.5u w=0.5u m=1
M10 N_5 N_4 GND GND mn5  l=0.5u w=0.5u m=1
M11 N_11 C GND GND mn5  l=0.5u w=0.5u m=1
M12 N_9 B N_4 VDD mp5  l=0.42u w=0.5u m=1
M13 N_6 B N_5 VDD mp5  l=0.42u w=0.5u m=1
M14 N_10 B VDD VDD mp5  l=0.42u w=0.5u m=1
M15 N_9 N_10 N_5 VDD mp5  l=0.42u w=0.5u m=1
M16 N_4 N_10 N_6 VDD mp5  l=0.42u w=0.5u m=1
M17 Y N_12 VDD VDD mp5  l=0.42u w=0.76u m=1
M18 N_4 A VDD VDD mp5  l=0.42u w=0.5u m=1
M19 N_5 N_4 VDD VDD mp5  l=0.42u w=0.5u m=1
M20 N_11 C VDD VDD mp5  l=0.42u w=0.5u m=1
M21 N_6 N_11 N_12 VDD mp5  l=0.42u w=0.5u m=1
M22 N_9 C N_12 VDD mp5  l=0.42u w=0.5u m=1
.ends XOR03

.subckt INV VDD Y GND A
M1 Y A GND GND mn5  l=0.5u w=0.58u m=1
M2 Y A VDD VDD mp5  l=0.42u w=0.76u m=1
.ends INV

.subckt INV0 GND Y VDD A
M1 Y A GND GND mn5  l=0.5u w=0.72u m=1
M2 Y A GND GND mn5  l=0.5u w=0.72u m=1
M3 Y A GND GND mn5  l=0.5u w=0.72u m=1
M4 Y A GND GND mn5  l=0.5u w=0.72u m=1
M5 Y A GND GND mn5  l=0.5u w=0.72u m=1
M6 Y A VDD VDD mp5  l=0.42u w=0.96u m=1
M7 Y A VDD VDD mp5  l=0.42u w=0.96u m=1
M8 Y A VDD VDD mp5  l=0.42u w=0.96u m=1
M9 Y A VDD VDD mp5  l=0.42u w=0.96u m=1
M10 Y A VDD VDD mp5  l=0.42u w=0.96u m=1
.ends INV0

.subckt BUFF VDD Y GND A
M1 Y N_4 GND GND mn5  l=0.5u w=0.58u m=1
M2 N_4 A GND GND mn5  l=0.5u w=0.5u m=1
M3 Y N_4 VDD VDD mp5  l=0.42u w=0.76u m=1
M4 N_4 A VDD VDD mp5  l=0.42u w=0.52u m=1
.ends BUFF

.subckt BUFF0 GND Y VDD A
M1 Y N_4 GND GND mn5  l=0.5u w=0.72u m=1
M2 Y N_4 GND GND mn5  l=0.5u w=0.72u m=1
M3 Y N_4 GND GND mn5  l=0.5u w=0.72u m=1
M4 Y N_4 GND GND mn5  l=0.5u w=0.72u m=1
M5 Y N_4 GND GND mn5  l=0.5u w=0.72u m=1
M6 N_4 A GND GND mn5  l=0.5u w=0.72u m=1
M7 N_4 A GND GND mn5  l=0.5u w=0.72u m=1
M8 Y N_4 VDD VDD mp5  l=0.42u w=0.96u m=1
M9 Y N_4 VDD VDD mp5  l=0.42u w=0.96u m=1
M10 Y N_4 VDD VDD mp5  l=0.42u w=0.96u m=1
M11 Y N_4 VDD VDD mp5  l=0.42u w=0.96u m=1
M12 Y N_4 VDD VDD mp5  l=0.42u w=0.96u m=1
M13 N_4 A VDD VDD mp5  l=0.42u w=0.96u m=1
M14 N_4 A VDD VDD mp5  l=0.42u w=0.96u m=1
.ends BUFF0

.subckt BUFT OE A GND Y VDD
M1 Y N_5 GND GND mn5  l=0.5u w=0.58u m=1
M2 N_5 A GND GND mn5  l=0.5u w=0.5u m=1
M3 N_5 N_3 N_6 GND mn5  l=0.5u w=0.5u m=1
M4 N_5 OE GND GND mn5  l=0.5u w=0.5u m=1
M5 N_3 OE GND GND mn5  l=0.5u w=0.5u m=1
M6 Y N_6 VDD VDD mp5  l=0.42u w=0.76u m=1
M7 N_6 A VDD VDD mp5  l=0.42u w=0.52u m=1
M8 N_6 N_3 VDD VDD mp5  l=0.42u w=0.52u m=1
M9 N_3 OE VDD VDD mp5  l=0.42u w=0.52u m=1
M10 N_6 OE N_5 VDD mp5  l=0.42u w=0.52u m=1
.ends BUFT

.subckt BUFTL A OE GND VDD Y
M1 Y N_5 GND GND mn5  l=0.5u w=0.58u m=1
M2 N_2 OE GND GND mn5  l=0.5u w=0.5u m=1
M3 N_5 OE N_6 GND mn5  l=0.5u w=0.5u m=1
M4 N_5 A GND GND mn5  l=0.5u w=0.5u m=1
M5 N_5 N_2 GND GND mn5  l=0.5u w=0.5u m=1
M6 Y N_6 VDD VDD mp5  l=0.42u w=0.76u m=1
M7 N_6 OE VDD VDD mp5  l=0.42u w=0.52u m=1
M8 N_2 OE VDD VDD mp5  l=0.42u w=0.52u m=1
M9 N_6 A VDD VDD mp5  l=0.42u w=0.52u m=1
M10 N_6 N_2 N_5 VDD mp5  l=0.42u w=0.52u m=1
.ends BUFTL

.subckt INVT A OE VDD GND Y
M1 N_2 OE GND GND mn5  l=0.5u w=0.5u m=1
M2 N_9 A GND GND mn5  l=0.5u w=0.58u m=1
M3 Y N_2 N_9 GND mn5  l=0.5u w=0.58u m=1
M4 N_2 OE VDD VDD mp5  l=0.42u w=0.52u m=1
M5 N_14 A VDD VDD mp5  l=0.42u w=0.76u m=1
M6 Y OE N_14 VDD mp5  l=0.42u w=0.76u m=1
.ends INVT

.subckt INVTL OE A GND VDD Y
M1 N_5 OE GND GND mn5  l=0.5u w=0.5u m=1
M2 N_9 A GND GND mn5  l=0.5u w=0.58u m=1
M3 Y OE N_9 GND mn5  l=0.5u w=0.58u m=1
M4 N_5 OE VDD VDD mp5  l=0.42u w=0.52u m=1
M5 N_14 A VDD VDD mp5  l=0.42u w=0.76u m=1
M6 Y N_5 N_14 VDD mp5  l=0.42u w=0.76u m=1
.ends INVTL

.subckt DELAY A GND VDD Y
M1 N_4 A GND GND mn5  l=0.5u w=0.5u m=1
M2 N_3 N_4 GND GND mn5  l=0.5u w=0.5u m=1
M3 N_2 N_3 GND GND mn5  l=0.5u w=0.5u m=1
M4 Y N_2 GND GND mn5  l=0.5u w=0.58u m=1
M5 N_4 A VDD VDD mp5  l=0.42u w=0.52u m=1
M6 N_3 N_4 VDD VDD mp5  l=0.42u w=0.52u m=1
M7 N_2 N_3 VDD VDD mp5  l=0.42u w=0.52u m=1
M8 Y N_2 VDD VDD mp5  l=0.42u w=0.76u m=1
.ends DELAY

.subckt AOI21 A0 A1 B0 GND Y VDD
M1 Y B0 GND GND mn5  l=0.5u w=0.58u m=1
M2 N_9 A1 Y GND mn5  l=0.5u w=0.58u m=1
M3 N_9 A0 GND GND mn5  l=0.5u w=0.58u m=1
M4 Y B0 N_7 VDD mp5  l=0.42u w=0.76u m=1
M5 N_7 A1 VDD VDD mp5  l=0.42u w=0.76u m=1
M6 N_7 A0 VDD VDD mp5  l=0.42u w=0.76u m=1
.ends AOI21

.subckt AOI22 B0 B1 A1 A0 Y VDD GND
M1 N_11 A0 GND GND mn5  l=0.5u w=0.58u m=1
M2 Y A1 N_11 GND mn5  l=0.5u w=0.58u m=1
M3 Y B1 N_10 GND mn5  l=0.5u w=0.58u m=1
M4 N_10 B0 GND GND mn5  l=0.5u w=0.58u m=1
M5 N_6 A0 VDD VDD mp5  l=0.42u w=0.76u m=1
M6 N_6 A1 VDD VDD mp5  l=0.42u w=0.76u m=1
M7 N_6 B1 Y VDD mp5  l=0.42u w=0.76u m=1
M8 N_6 B0 Y VDD mp5  l=0.42u w=0.76u m=1
.ends AOI22

.subckt AOI31 B0 A2 A1 A0 GND VDD Y
M1 N_10 A0 GND GND mn5  l=0.5u w=0.58u m=1
M2 N_11 A1 N_10 GND mn5  l=0.5u w=0.58u m=1
M3 N_11 A2 Y GND mn5  l=0.5u w=0.58u m=1
M4 Y B0 GND GND mn5  l=0.5u w=0.58u m=1
M5 N_9 A0 VDD VDD mp5  l=0.42u w=0.76u m=1
M6 N_9 A1 VDD VDD mp5  l=0.42u w=0.76u m=1
M7 N_9 A2 VDD VDD mp5  l=0.42u w=0.76u m=1
M8 Y B0 N_9 VDD mp5  l=0.42u w=0.76u m=1
.ends AOI31

.subckt AOI32 GND Y VDD B0 B1 A2 A1 A0
M1 N_6 A0 GND GND mn5  l=0.5u w=0.58u m=1
M2 N_7 A1 N_6 GND mn5  l=0.5u w=0.58u m=1
M3 Y A2 N_7 GND mn5  l=0.5u w=0.58u m=1
M4 Y B1 N_5 GND mn5  l=0.5u w=0.58u m=1
M5 N_5 B0 GND GND mn5  l=0.5u w=0.58u m=1
M6 N_9 A0 VDD VDD mp5  l=0.42u w=0.76u m=1
M7 N_9 A1 VDD VDD mp5  l=0.42u w=0.76u m=1
M8 N_9 A2 VDD VDD mp5  l=0.42u w=0.76u m=1
M9 N_9 B1 Y VDD mp5  l=0.42u w=0.76u m=1
M10 N_9 B0 Y VDD mp5  l=0.42u w=0.76u m=1
.ends AOI32

.subckt AOI33 GND Y VDD B0 B1 B2 A2 A1 A0
M1 N_6 A0 GND GND mn5  l=0.5u w=0.58u m=1
M2 N_7 A1 N_6 GND mn5  l=0.5u w=0.58u m=1
M3 Y A2 N_7 GND mn5  l=0.5u w=0.58u m=1
M4 N_8 B2 Y GND mn5  l=0.5u w=0.58u m=1
M5 N_8 B1 N_5 GND mn5  l=0.5u w=0.58u m=1
M6 N_5 B0 GND GND mn5  l=0.5u w=0.58u m=1
M7 N_11 A0 VDD VDD mp5  l=0.42u w=0.76u m=1
M8 N_11 A1 VDD VDD mp5  l=0.42u w=0.76u m=1
M9 N_11 A2 VDD VDD mp5  l=0.42u w=0.76u m=1
M10 Y B2 N_11 VDD mp5  l=0.42u w=0.76u m=1
M11 Y B1 N_11 VDD mp5  l=0.42u w=0.76u m=1
M12 Y B0 N_11 VDD mp5  l=0.42u w=0.76u m=1
.ends AOI33

.subckt AOI211 A0 A1 B0 C0 Y VDD GND
M1 Y C0 GND GND mn5  l=0.5u w=0.58u m=1
M2 Y B0 GND GND mn5  l=0.5u w=0.58u m=1
M3 Y A1 N_10 GND mn5  l=0.5u w=0.58u m=1
M4 N_10 A0 GND GND mn5  l=0.5u w=0.58u m=1
M5 Y C0 N_16 VDD mp5  l=0.42u w=0.76u m=1
M6 N_6 B0 N_16 VDD mp5  l=0.42u w=0.76u m=1
M7 N_6 A1 VDD VDD mp5  l=0.42u w=0.76u m=1
M8 N_6 A0 VDD VDD mp5  l=0.42u w=0.76u m=1
.ends AOI211

.subckt AOI221 B0 A0 A1 B1 C0 Y VDD GND
M1 Y C0 GND GND mn5  l=0.5u w=0.58u m=1
M2 Y B1 N_12 GND mn5  l=0.5u w=0.58u m=1
M3 N_13 A1 Y GND mn5  l=0.5u w=0.58u m=1
M4 N_13 A0 GND GND mn5  l=0.5u w=0.58u m=1
M5 N_12 B0 GND GND mn5  l=0.5u w=0.58u m=1
M6 Y C0 N_8 VDD mp5  l=0.42u w=0.76u m=1
M7 N_7 B1 VDD VDD mp5  l=0.42u w=0.76u m=1
M8 N_7 A1 N_8 VDD mp5  l=0.42u w=0.76u m=1
M9 N_7 A0 N_8 VDD mp5  l=0.42u w=0.76u m=1
M10 N_7 B0 VDD VDD mp5  l=0.42u w=0.76u m=1
.ends AOI221

.subckt AOIM21 B0 A1N A0N GND VDD Y
M1 N_3 A0N GND GND mn5  l=0.5u w=0.5u m=1
M2 N_3 A1N GND GND mn5  l=0.5u w=0.5u m=1
M3 Y N_3 GND GND mn5  l=0.5u w=0.58u m=1
M4 Y B0 GND GND mn5  l=0.5u w=0.58u m=1
M5 N_14 A0N VDD VDD mp5  l=0.42u w=0.52u m=1
M6 N_3 A1N N_14 VDD mp5  l=0.42u w=0.52u m=1
M7 N_13 N_3 VDD VDD mp5  l=0.42u w=0.76u m=1
M8 Y B0 N_13 VDD mp5  l=0.42u w=0.76u m=1
.ends AOIM21

.subckt AOIM22 B0 B1 A1N A0N VDD Y GND
M1 N_2 A0N GND GND mn5  l=0.5u w=0.5u m=1
M2 N_2 A1N GND GND mn5  l=0.5u w=0.5u m=1
M3 N_11 B1 GND GND mn5  l=0.5u w=0.58u m=1
M4 N_11 B0 Y GND mn5  l=0.5u w=0.58u m=1
M5 Y N_2 GND GND mn5  l=0.5u w=0.58u m=1
M6 N_18 A0N VDD VDD mp5  l=0.42u w=0.52u m=1
M7 N_2 A1N N_18 VDD mp5  l=0.42u w=0.52u m=1
M8 N_10 B1 VDD VDD mp5  l=0.42u w=0.76u m=1
M9 N_10 B0 VDD VDD mp5  l=0.42u w=0.76u m=1
M10 Y N_2 N_10 VDD mp5  l=0.42u w=0.76u m=1
.ends AOIM22

.subckt AOIM31 B0 A2N A1N A0N GND VDD Y
M1 N_3 A0N GND GND mn5  l=0.5u w=0.5u m=1
M2 N_3 A1N GND GND mn5  l=0.5u w=0.5u m=1
M3 N_3 A2N GND GND mn5  l=0.5u w=0.5u m=1
M4 Y N_3 GND GND mn5  l=0.5u w=0.58u m=1
M5 Y B0 GND GND mn5  l=0.5u w=0.58u m=1
M6 N_15 A0N VDD VDD mp5  l=0.42u w=0.52u m=1
M7 N_16 A1N N_15 VDD mp5  l=0.42u w=0.52u m=1
M8 N_3 A2N N_16 VDD mp5  l=0.42u w=0.52u m=1
M9 N_14 N_3 VDD VDD mp5  l=0.42u w=0.76u m=1
M10 Y B0 N_14 VDD mp5  l=0.42u w=0.76u m=1
.ends AOIM31

.subckt AOR21 B0 A1 A0 GND VDD Y
M1 N_10 A0 GND GND mn5  l=0.5u w=0.5u m=1
M2 N_3 A1 N_10 GND mn5  l=0.5u w=0.5u m=1
M3 Y N_3 GND GND mn5  l=0.5u w=0.58u m=1
M4 N_3 B0 GND GND mn5  l=0.5u w=0.5u m=1
M5 N_9 A0 VDD VDD mp5  l=0.42u w=0.52u m=1
M6 N_9 A1 VDD VDD mp5  l=0.42u w=0.52u m=1
M7 Y N_3 VDD VDD mp5  l=0.42u w=0.76u m=1
M8 N_3 B0 N_9 VDD mp5  l=0.42u w=0.52u m=1
.ends AOR21

.subckt AOR211 C0 B0 A0 A1 VDD Y GND
M1 N_11 A1 N_2 GND mn5  l=0.5u w=0.5u m=1
M2 N_11 A0 GND GND mn5  l=0.5u w=0.5u m=1
M3 N_2 B0 GND GND mn5  l=0.5u w=0.5u m=1
M4 N_2 C0 GND GND mn5  l=0.5u w=0.5u m=1
M5 Y N_2 GND GND mn5  l=0.5u w=0.58u m=1
M6 N_9 A1 VDD VDD mp5  l=0.42u w=0.52u m=1
M7 N_9 A0 VDD VDD mp5  l=0.42u w=0.52u m=1
M8 N_18 B0 N_9 VDD mp5  l=0.42u w=0.52u m=1
M9 N_2 C0 N_18 VDD mp5  l=0.42u w=0.52u m=1
M10 Y N_2 VDD VDD mp5  l=0.42u w=0.76u m=1
.ends AOR211

.subckt AOR22 A0 A1 B1 B0 GND VDD Y
M1 Y N_6 GND GND mn5  l=0.5u w=0.58u m=1
M2 N_12 B0 GND GND mn5  l=0.5u w=0.5u m=1
M3 N_12 B1 N_6 GND mn5  l=0.5u w=0.5u m=1
M4 N_6 A1 N_11 GND mn5  l=0.5u w=0.5u m=1
M5 N_11 A0 GND GND mn5  l=0.5u w=0.5u m=1
M6 Y N_6 VDD VDD mp5  l=0.42u w=0.76u m=1
M7 N_8 B0 N_6 VDD mp5  l=0.42u w=0.52u m=1
M8 N_6 B1 N_8 VDD mp5  l=0.42u w=0.52u m=1
M9 N_8 A1 VDD VDD mp5  l=0.42u w=0.52u m=1
M10 N_8 A0 VDD VDD mp5  l=0.42u w=0.52u m=1
.ends AOR22

.subckt AOR221 GND Y VDD C0 A0 A1 B1 B0
M1 Y N_4 GND GND mn5  l=0.5u w=0.58u m=1
M2 N_8 B0 GND GND mn5  l=0.5u w=0.5u m=1
M3 N_8 B1 N_4 GND mn5  l=0.5u w=0.5u m=1
M4 N_4 A1 N_7 GND mn5  l=0.5u w=0.5u m=1
M5 N_7 A0 GND GND mn5  l=0.5u w=0.5u m=1
M6 N_4 C0 GND GND mn5  l=0.5u w=0.5u m=1
M7 N_14 A1 N_12 VDD mp5  l=0.42u w=0.52u m=1
M8 N_12 A0 N_14 VDD mp5  l=0.42u w=0.52u m=1
M9 N_12 C0 N_4 VDD mp5  l=0.42u w=0.52u m=1
M10 Y N_4 VDD VDD mp5  l=0.42u w=0.76u m=1
M11 N_14 B0 VDD VDD mp5  l=0.42u w=0.52u m=1
M12 N_14 B1 VDD VDD mp5  l=0.42u w=0.52u m=1
.ends AOR221

.subckt AOR31 B0 A2 A1 A0 GND Y VDD
M1 N_11 A0 GND GND mn5  l=0.5u w=0.5u m=1
M2 N_12 A1 N_11 GND mn5  l=0.5u w=0.5u m=1
M3 N_2 A2 N_12 GND mn5  l=0.5u w=0.5u m=1
M4 N_2 B0 GND GND mn5  l=0.5u w=0.5u m=1
M5 Y N_2 GND GND mn5  l=0.5u w=0.58u m=1
M6 N_10 A0 VDD VDD mp5  l=0.42u w=0.52u m=1
M7 N_10 A1 VDD VDD mp5  l=0.42u w=0.52u m=1
M8 N_10 A2 VDD VDD mp5  l=0.42u w=0.52u m=1
M9 N_2 B0 N_10 VDD mp5  l=0.42u w=0.52u m=1
M10 Y N_2 VDD VDD mp5  l=0.42u w=0.76u m=1
.ends AOR31

.subckt AOR311 GND Y VDD A2 A0 A1 B0 C0
M1 N_7 A1 N_4 GND mn5  l=0.5u w=0.5u m=1
M2 N_4 B0 GND GND mn5  l=0.5u w=0.5u m=1
M3 N_4 C0 GND GND mn5  l=0.5u w=0.5u m=1
M4 N_8 A2 GND GND mn5  l=0.5u w=0.5u m=1
M5 N_8 A0 N_7 GND mn5  l=0.5u w=0.5u m=1
M6 Y N_4 GND GND mn5  l=0.5u w=0.58u m=1
M7 N_10 A1 VDD VDD mp5  l=0.42u w=0.52u m=1
M8 N_10 B0 N_15 VDD mp5  l=0.42u w=0.52u m=1
M9 N_15 C0 N_4 VDD mp5  l=0.42u w=0.52u m=1
M10 N_10 A2 VDD VDD mp5  l=0.42u w=0.52u m=1
M11 N_10 A0 VDD VDD mp5  l=0.42u w=0.52u m=1
M12 Y N_4 VDD VDD mp5  l=0.42u w=0.76u m=1
.ends AOR311

.subckt OAI21 A0 A1 B0 Y VDD GND
M1 N_5 B0 Y GND mn5  l=0.5u w=0.58u m=1
M2 N_5 A1 GND GND mn5  l=0.5u w=0.58u m=1
M3 N_5 A0 GND GND mn5  l=0.5u w=0.58u m=1
M4 Y B0 VDD VDD mp5  l=0.42u w=0.76u m=1
M5 N_9 A1 Y VDD mp5  l=0.42u w=0.76u m=1
M6 N_9 A0 VDD VDD mp5  l=0.42u w=0.76u m=1
.ends OAI21

.subckt OAI22 A1 A0 B0 B1 VDD Y GND
M1 Y B1 N_7 GND mn5  l=0.5u w=0.58u m=1
M2 N_7 B0 Y GND mn5  l=0.5u w=0.58u m=1
M3 N_7 A0 GND GND mn5  l=0.5u w=0.58u m=1
M4 N_7 A1 GND GND mn5  l=0.5u w=0.58u m=1
M5 N_11 B1 Y VDD mp5  l=0.42u w=0.76u m=1
M6 N_11 B0 VDD VDD mp5  l=0.42u w=0.76u m=1
M7 N_10 A0 VDD VDD mp5  l=0.42u w=0.76u m=1
M8 Y A1 N_10 VDD mp5  l=0.42u w=0.76u m=1
.ends OAI22

.subckt OAI31 A2 A0 A1 B0 Y VDD GND
M1 Y B0 N_7 GND mn5  l=0.5u w=0.58u m=1
M2 N_7 A1 GND GND mn5  l=0.5u w=0.58u m=1
M3 N_7 A0 GND GND mn5  l=0.5u w=0.58u m=1
M4 N_7 A2 GND GND mn5  l=0.5u w=0.58u m=1
M5 Y B0 VDD VDD mp5  l=0.42u w=0.76u m=1
M6 N_11 A1 VDD VDD mp5  l=0.42u w=0.76u m=1
M7 N_11 A0 N_10 VDD mp5  l=0.42u w=0.76u m=1
M8 N_10 A2 Y VDD mp5  l=0.42u w=0.76u m=1
.ends OAI31

.subckt OAI32 A2 B1 B0 A0 A1 GND VDD Y
M1 N_9 A1 GND GND mn5  l=0.5u w=0.58u m=1
M2 N_9 A0 GND GND mn5  l=0.5u w=0.58u m=1
M3 N_9 B0 Y GND mn5  l=0.5u w=0.58u m=1
M4 N_9 B1 Y GND mn5  l=0.5u w=0.58u m=1
M5 N_9 A2 GND GND mn5  l=0.5u w=0.58u m=1
M6 N_13 A1 VDD VDD mp5  l=0.42u w=0.76u m=1
M7 N_13 A0 N_12 VDD mp5  l=0.42u w=0.76u m=1
M8 N_11 B0 VDD VDD mp5  l=0.42u w=0.76u m=1
M9 Y B1 N_11 VDD mp5  l=0.42u w=0.76u m=1
M10 N_12 A2 Y VDD mp5  l=0.42u w=0.76u m=1
.ends OAI32

.subckt OAI33 VDD Y GND B2 B1 B0 A1 A0 A2
M1 Y B0 N_12 GND mn5  l=0.5u w=0.58u m=1
M2 N_12 A1 GND GND mn5  l=0.5u w=0.58u m=1
M3 N_12 A0 GND GND mn5  l=0.5u w=0.58u m=1
M4 N_12 A2 GND GND mn5  l=0.5u w=0.58u m=1
M5 Y B2 N_12 GND mn5  l=0.5u w=0.58u m=1
M6 Y B1 N_12 GND mn5  l=0.5u w=0.58u m=1
M7 N_9 B0 VDD VDD mp5  l=0.42u w=0.76u m=1
M8 N_8 A1 VDD VDD mp5  l=0.42u w=0.76u m=1
M9 N_8 A0 N_7 VDD mp5  l=0.42u w=0.76u m=1
M10 N_7 A2 Y VDD mp5  l=0.42u w=0.76u m=1
M11 Y B2 N_6 VDD mp5  l=0.42u w=0.76u m=1
M12 N_9 B1 N_6 VDD mp5  l=0.42u w=0.76u m=1
.ends OAI33

.subckt OAI211 C0 B0 A1 A0 GND VDD Y
M1 N_9 A0 GND GND mn5  l=0.5u w=0.58u m=1
M2 N_9 A1 GND GND mn5  l=0.5u w=0.58u m=1
M3 N_9 B0 N_16 GND mn5  l=0.5u w=0.58u m=1
M4 Y C0 N_16 GND mn5  l=0.5u w=0.58u m=1
M5 N_10 A0 VDD VDD mp5  l=0.42u w=0.76u m=1
M6 Y A1 N_10 VDD mp5  l=0.42u w=0.76u m=1
M7 Y B0 VDD VDD mp5  l=0.42u w=0.76u m=1
M8 Y C0 VDD VDD mp5  l=0.42u w=0.76u m=1
.ends OAI211

.subckt OAI221 C0 B1 A1 A0 B0 Y VDD GND
M1 N_7 B0 N_8 GND mn5  l=0.5u w=0.58u m=1
M2 N_8 A0 GND GND mn5  l=0.5u w=0.58u m=1
M3 N_8 A1 GND GND mn5  l=0.5u w=0.58u m=1
M4 N_8 B1 N_7 GND mn5  l=0.5u w=0.58u m=1
M5 Y C0 N_7 GND mn5  l=0.5u w=0.58u m=1
M6 N_13 B0 VDD VDD mp5  l=0.42u w=0.76u m=1
M7 N_12 A0 VDD VDD mp5  l=0.42u w=0.76u m=1
M8 Y C0 VDD VDD mp5  l=0.42u w=0.76u m=1
M9 Y A1 N_12 VDD mp5  l=0.42u w=0.76u m=1
M10 N_13 B1 Y VDD mp5  l=0.42u w=0.76u m=1
.ends OAI221

.subckt OAI222 C1 C0 B1 A1 A0 B0 GND VDD Y
M1 N_13 B0 N_10 GND mn5  l=0.5u w=0.58u m=1
M2 N_13 A0 GND GND mn5  l=0.5u w=0.58u m=1
M3 N_13 A1 GND GND mn5  l=0.5u w=0.58u m=1
M4 N_10 B1 N_13 GND mn5  l=0.5u w=0.58u m=1
M5 N_10 C0 Y GND mn5  l=0.5u w=0.58u m=1
M6 Y C1 N_10 GND mn5  l=0.5u w=0.58u m=1
M7 N_12 B0 VDD VDD mp5  l=0.42u w=0.76u m=1
M8 N_21 A0 VDD VDD mp5  l=0.42u w=0.76u m=1
M9 Y A1 N_21 VDD mp5  l=0.42u w=0.76u m=1
M10 Y B1 N_12 VDD mp5  l=0.42u w=0.76u m=1
M11 Y C0 N_20 VDD mp5  l=0.42u w=0.76u m=1
M12 N_20 C1 VDD VDD mp5  l=0.42u w=0.76u m=1
.ends OAI222

.subckt OAI311 C0 A2 A1 A0 B0 VDD Y GND
M1 N_9 B0 N_18 GND mn5  l=0.5u w=0.58u m=1
M2 N_9 A0 GND GND mn5  l=0.5u w=0.58u m=1
M3 N_9 A1 GND GND mn5  l=0.5u w=0.58u m=1
M4 N_9 A2 GND GND mn5  l=0.5u w=0.58u m=1
M5 Y C0 N_18 GND mn5  l=0.5u w=0.58u m=1
M6 Y B0 VDD VDD mp5  l=0.42u w=0.76u m=1
M7 N_12 A0 VDD VDD mp5  l=0.42u w=0.76u m=1
M8 N_12 A1 N_11 VDD mp5  l=0.42u w=0.76u m=1
M9 N_11 A2 Y VDD mp5  l=0.42u w=0.76u m=1
M10 VDD C0 Y VDD mp5  l=0.42u w=0.76u m=1
.ends OAI311

.subckt OAI321 A2 A1 A0 B0 B1 C0 GND Y VDD
M1 Y C0 N_11 GND mn5  l=0.5u w=0.58u m=1
M2 N_11 B1 N_10 GND mn5  l=0.5u w=0.58u m=1
M3 N_10 B0 N_11 GND mn5  l=0.5u w=0.58u m=1
M4 N_10 A0 GND GND mn5  l=0.5u w=0.58u m=1
M5 N_10 A1 GND GND mn5  l=0.5u w=0.58u m=1
M6 N_10 A2 GND GND mn5  l=0.5u w=0.58u m=1
M7 Y C0 VDD VDD mp5  l=0.42u w=0.76u m=1
M8 N_15 B1 Y VDD mp5  l=0.42u w=0.76u m=1
M9 N_15 B0 VDD VDD mp5  l=0.42u w=0.76u m=1
M10 N_14 A0 VDD VDD mp5  l=0.42u w=0.76u m=1
M11 N_14 A1 N_13 VDD mp5  l=0.42u w=0.76u m=1
M12 N_13 A2 Y VDD mp5  l=0.42u w=0.76u m=1
.ends OAI321

.subckt OAI322 Y VDD GND B0 A0 A1 A2 B1 C0 C1
M1 N_14 B0 N_12 GND mn5  l=0.5u w=0.58u m=1
M2 Y C1 N_12 GND mn5  l=0.5u w=0.58u m=1
M3 N_12 C0 Y GND mn5  l=0.5u w=0.58u m=1
M4 N_14 B1 N_12 GND mn5  l=0.5u w=0.58u m=1
M5 N_14 A2 GND GND mn5  l=0.5u w=0.58u m=1
M6 N_14 A1 GND GND mn5  l=0.5u w=0.58u m=1
M7 N_14 A0 GND GND mn5  l=0.5u w=0.58u m=1
M8 N_9 C1 VDD VDD mp5  l=0.42u w=0.76u m=1
M9 N_9 C0 Y VDD mp5  l=0.42u w=0.76u m=1
M10 N_3 B1 Y VDD mp5  l=0.42u w=0.76u m=1
M11 N_10 A2 Y VDD mp5  l=0.42u w=0.76u m=1
M12 N_11 A1 N_10 VDD mp5  l=0.42u w=0.76u m=1
M13 N_11 A0 VDD VDD mp5  l=0.42u w=0.76u m=1
M14 N_3 B0 VDD VDD mp5  l=0.42u w=0.76u m=1
.ends OAI322

.subckt OAIM21 B0 A1N A0N VDD GND Y