* Created:  04/09/2012

.SUBCKT PLVT11LL_CKT DRN GATE SRC BULK 
+ 
.ENDS

.SUBCKT NLVT11LL_CKT DRN GATE SRC BULK 
+ 
.ENDS
****Sub-Circuit for LVT_AD1HSV1, Wed Sep  5 13:54:26 CST 2012****
.SUBCKT LVT_AD1HSV1 A B CI CO S VDD VSS
XX14 m CI net098 VPW NLVT11LL_CKT W=210.00n L=40.00n
XX18 S net098 VSS VPW NLVT11LL_CKT W=190.00n L=40.00n
XX20 bn B VSS VPW NLVT11LL_CKT W=210.00n L=40.00n
XX27 net0175 CI net0171 VPW NLVT11LL_CKT W=310.00n L=40.00n
XX28 net0171 m VSS VPW NLVT11LL_CKT W=310.00n L=40.00n
XX12 m net43 VSS VPW NLVT11LL_CKT W=285.00n L=40.00n
XX22 cn CI VSS VPW NLVT11LL_CKT W=210.00n L=40.00n
XX29 net0167 B VSS VPW NLVT11LL_CKT W=310.00n L=40.00n
XX30 net0175 A net0167 VPW NLVT11LL_CKT W=310.00n L=40.00n
XX32 CO net0175 VSS VPW NLVT11LL_CKT W=210.00n L=40.00n
XX3 net0217 bn net43 VPW NLVT11LL_CKT W=210.00n L=40.00n
XX9 net0147 B net43 VPW NLVT11LL_CKT W=210.00n L=40.00n
XX7 net0217 A VSS VPW NLVT11LL_CKT W=210.00n L=40.00n
XX16 net43 cn net098 VPW NLVT11LL_CKT W=210.00n L=40.00n
XX6 net0147 net0217 VSS VPW NLVT11LL_CKT W=280.00n L=40.00n
XX13 m cn net098 VNW PLVT11LL_CKT W=310.00n L=40.00n
XX17 S net098 VDD VNW PLVT11LL_CKT W=315.00n L=40.00n
XX11 m net43 VDD VNW PLVT11LL_CKT W=430.00n L=40.00n
XX25 net0175 A net0106 VNW PLVT11LL_CKT W=455.00n L=40.00n
XX21 cn CI VDD VNW PLVT11LL_CKT W=250.00n L=40.00n
XX19 bn B VDD VNW PLVT11LL_CKT W=250.00n L=40.00n
XX8 net0147 bn net43 VNW PLVT11LL_CKT W=310.00n L=40.00n
XX26 net0175 B net0106 VNW PLVT11LL_CKT W=455.00n L=40.00n
XX24 net0106 m VDD VNW PLVT11LL_CKT W=455.00n L=40.00n
XX23 net0106 CI VDD VNW PLVT11LL_CKT W=455.00n L=40.00n
XX2 net0217 B net43 VNW PLVT11LL_CKT W=310.00n L=40.00n
XX31 CO net0175 VDD VNW PLVT11LL_CKT W=315.00n L=40.00n
XX4 net0147 net0217 VDD VNW PLVT11LL_CKT W=430.00n L=40.00n
XX5 net0217 A VDD VNW PLVT11LL_CKT W=400.00n L=40.00n
XX15 net43 CI net098 VNW PLVT11LL_CKT W=310.00n L=40.00n
.ENDS LVT_AD1HSV1
****Sub-Circuit for LVT_ADH1HSV1, Wed Sep  5 13:54:26 CST 2012****
.SUBCKT LVT_ADH1HSV1 A B CO S VDD VSS
XX18 S net098 VSS VPW NLVT11LL_CKT W=285.00n L=40.00n
XX20 bn B VSS VPW NLVT11LL_CKT W=210.00n L=40.00n
XX33 net0106 B net0171 VPW NLVT11LL_CKT W=310.00n L=40.00n
XX28 net0171 A VSS VPW NLVT11LL_CKT W=310.00n L=40.00n
XX32 CO net0106 VSS VPW NLVT11LL_CKT W=210.00n L=40.00n
XX3 net0217 bn net098 VPW NLVT11LL_CKT W=210.00n L=40.00n
XX9 net0147 B net098 VPW NLVT11LL_CKT W=210.00n L=40.00n
XX7 net0217 A VSS VPW NLVT11LL_CKT W=210.00n L=40.00n
XX6 net0147 net0217 VSS VPW NLVT11LL_CKT W=210.00n L=40.00n
XX17 S net098 VDD VNW PLVT11LL_CKT W=430.00n L=40.00n
XX19 bn B VDD VNW PLVT11LL_CKT W=250.00n L=40.00n
XX8 net0147 bn net098 VNW PLVT11LL_CKT W=310.00n L=40.00n
XX24 net0106 B VDD VNW PLVT11LL_CKT W=455.00n L=40.00n
XX23 net0106 A VDD VNW PLVT11LL_CKT W=455.00n L=40.00n
XX2 net0217 B net098 VNW PLVT11LL_CKT W=310.00n L=40.00n
XX31 CO net0106 VDD VNW PLVT11LL_CKT W=315.00n L=40.00n
XX4 net0147 net0217 VDD VNW PLVT11LL_CKT W=310.00n L=40.00n
XX5 net0217 A VDD VNW PLVT11LL_CKT W=420.00n L=40.00n
.ENDS LVT_ADH1HSV1
****Sub-Circuit for LVT_AND2HSV1, Wed Sep  5 13:54:26 CST 2012****
.SUBCKT LVT_AND2HSV1 A1 A2 Z VDD VSS
XX1 net11 A1 net18 VPW NLVT11LL_CKT W=140.00n L=40.00n
XX2 Z net11 VSS VPW NLVT11LL_CKT W=210.00n L=40.00n
XXN1 net18 A2 VSS VPW NLVT11LL_CKT W=140.00n L=40.00n
XX3 Z net11 VDD VNW PLVT11LL_CKT W=310.00n L=40.00n
XX0 net11 A2 VDD VNW PLVT11LL_CKT W=210.00n L=40.00n
XXP1 net11 A1 VDD VNW PLVT11LL_CKT W=210.00n L=40.00n
.ENDS LVT_AND2HSV1
****Sub-Circuit for LVT_AND2HSV2, Wed Sep  5 13:54:26 CST 2012****
.SUBCKT LVT_AND2HSV2 A1 A2 Z VDD VSS
XX1 net11 A1 net18 VPW NLVT11LL_CKT W=140.00n L=40.00n
XX2 Z net11 VSS VPW NLVT11LL_CKT W=310.00n L=40.00n
XXN1 net18 A2 VSS VPW NLVT11LL_CKT W=140.00n L=40.00n
XX3 Z net11 VDD VNW PLVT11LL_CKT W=455.00n L=40.00n
XX0 net11 A2 VDD VNW PLVT11LL_CKT W=210.00n L=40.00n
XXP1 net11 A1 VDD VNW PLVT11LL_CKT W=210.00n L=40.00n
.ENDS LVT_AND2HSV2
****Sub-Circuit for LVT_AND2HSV4, Wed Sep  5 13:54:26 CST 2012****
.SUBCKT LVT_AND2HSV4 A1 A2 Z VDD VSS
XX1 net11 A1 net18 VPW NLVT11LL_CKT W=140.00n L=40.00n
XX2 Z net11 VSS VPW NLVT11LL_CKT W=620.00n L=40.00n
XXN1 net18 A2 VSS VPW NLVT11LL_CKT W=140.00n L=40.00n
XX3 Z net11 VDD VNW PLVT11LL_CKT W=910.00n L=40.00n
XX0 net11 A2 VDD VNW PLVT11LL_CKT W=210.00n L=40.00n
XXP1 net11 A1 VDD VNW PLVT11LL_CKT W=210.00n L=40.00n
.ENDS LVT_AND2HSV4
****Sub-Circuit for LVT_AND2HSV8, Wed Sep  5 13:54:26 CST 2012****
.SUBCKT LVT_AND2HSV8 A1 A2 Z VDD VSS
XX1 net11 A1 net18 VPW NLVT11LL_CKT W=310.00n L=40.00n
XX2 Z net11 VSS VPW NLVT11LL_CKT W=1.24u L=40.00n
XXN1 net18 A2 VSS VPW NLVT11LL_CKT W=310.00n L=40.00n
XX3 Z net11 VDD VNW PLVT11LL_CKT W=1.82u L=40.00n
XX0 net11 A2 VDD VNW PLVT11LL_CKT W=455.00n L=40.00n
XXP1 net11 A1 VDD VNW PLVT11LL_CKT W=455.00n L=40.00n
.ENDS LVT_AND2HSV8
****Sub-Circuit for LVT_AND3HSV1, Wed Sep  5 13:54:26 CST 2012****
.SUBCKT LVT_AND3HSV1 A1 A2 A3 Z VDD VSS
XX1 net11 A1 net18 VPW NLVT11LL_CKT W=260.00n L=40.00n
XX2 Z net11 VSS VPW NLVT11LL_CKT W=210.00n L=40.00n
XX4 net_043 A3 VSS VPW NLVT11LL_CKT W=260.00n L=40.00n
XXN1 net18 A2 net_043 VPW NLVT11LL_CKT W=260.00n L=40.00n
XX5 net11 A3 VDD VNW PLVT11LL_CKT W=210.00n L=40.00n
XX3 Z net11 VDD VNW PLVT11LL_CKT W=310.00n L=40.00n
XX0 net11 A2 VDD VNW PLVT11LL_CKT W=210.00n L=40.00n
XXP1 net11 A1 VDD VNW PLVT11LL_CKT W=210.00n L=40.00n
.ENDS LVT_AND3HSV1
****Sub-Circuit for LVT_AND3HSV2, Wed Sep  5 13:54:26 CST 2012****
.SUBCKT LVT_AND3HSV2 A1 A2 A3 Z VDD VSS
XX1 net11 A1 net18 VPW NLVT11LL_CKT W=260.00n L=40.00n
XX2 Z net11 VSS VPW NLVT11LL_CKT W=310.00n L=40.00n
XX4 net_043 A3 VSS VPW NLVT11LL_CKT W=260.00n L=40.00n
XXN1 net18 A2 net_043 VPW NLVT11LL_CKT W=260.00n L=40.00n
XX5 net11 A3 VDD VNW PLVT11LL_CKT W=210.00n L=40.00n
XX3 Z net11 VDD VNW PLVT11LL_CKT W=455.00n L=40.00n
XX0 net11 A2 VDD VNW PLVT11LL_CKT W=210.00n L=40.00n
XXP1 net11 A1 VDD VNW PLVT11LL_CKT W=210.00n L=40.00n
.ENDS LVT_AND3HSV2
****Sub-Circuit for LVT_AND3HSV4, Wed Sep  5 13:54:26 CST 2012****
.SUBCKT LVT_AND3HSV4 A1 A2 A3 Z VDD VSS
XX1 net11 A1 net18 VPW NLVT11LL_CKT W=260.00n L=40.00n
XX2 Z net11 VSS VPW NLVT11LL_CKT W=620.00n L=40.00n
XX4 net_043 A3 VSS VPW NLVT11LL_CKT W=260.00n L=40.00n
XXN1 net18 A2 net_043 VPW NLVT11LL_CKT W=260.00n L=40.00n
XX5 net11 A3 VDD VNW PLVT11LL_CKT W=210.00n L=40.00n
XX3 Z net11 VDD VNW PLVT11LL_CKT W=910.00n L=40.00n
XX0 net11 A2 VDD VNW PLVT11LL_CKT W=210.00n L=40.00n
XXP1 net11 A1 VDD VNW PLVT11LL_CKT W=210.00n L=40.00n
.ENDS LVT_AND3HSV4
****Sub-Circuit for LVT_AND3HSV8, Wed Sep  5 13:54:26 CST 2012****
.SUBCKT LVT_AND3HSV8 A1 A2 A3 Z VDD VSS
XX1 net11 A1 net18 VPW NLVT11LL_CKT W=310.00n L=40.00n
XX2 Z net11 VSS VPW NLVT11LL_CKT W=1.24u L=40.00n
XX4 net_043 A3 VSS VPW NLVT11LL_CKT W=310.00n L=40.00n
XXN1 net18 A2 net_043 VPW NLVT11LL_CKT W=310.00n L=40.00n
XX5 net11 A3 VDD VNW PLVT11LL_CKT W=455.00n L=40.00n
XX3 Z net11 VDD VNW PLVT11LL_CKT W=1.82u L=40.00n
XX0 net11 A2 VDD VNW PLVT11LL_CKT W=455.00n L=40.00n
XXP1 net11 A1 VDD VNW PLVT11LL_CKT W=455.00n L=40.00n
.ENDS LVT_AND3HSV8
****Sub-Circuit for LVT_AND4HSV1, Wed Sep  5 13:54:26 CST 2012****
.SUBCKT LVT_AND4HSV1 A1 A2 A3 A4 Z VDD VSS
XX6 net_042 A4 VSS VPW NLVT11LL_CKT W=310.00n L=40.00n
XX1 net11 A1 net18 VPW NLVT11LL_CKT W=310.00n L=40.00n
XX2 Z net11 VSS VPW NLVT11LL_CKT W=210.00n L=40.00n
XX4 net_054 A3 net_042 VPW NLVT11LL_CKT W=310.00n L=40.00n
XXN1 net18 A2 net_054 VPW NLVT11LL_CKT W=310.00n L=40.00n
XX7 net11 A4 VDD VNW PLVT11LL_CKT W=210.00n L=40.00n
XX5 net11 A3 VDD VNW PLVT11LL_CKT W=210.00n L=40.00n
XX3 Z net11 VDD VNW PLVT11LL_CKT W=310.00n L=40.00n
XX0 net11 A2 VDD VNW PLVT11LL_CKT W=210.00n L=40.00n
XXP1 net11 A1 VDD VNW PLVT11LL_CKT W=210.00n L=40.00n
.ENDS LVT_AND4HSV1
****Sub-Circuit for LVT_AND4HSV2, Wed Sep  5 13:54:26 CST 2012****
.SUBCKT LVT_AND4HSV2 A1 A2 A3 A4 Z VDD VSS
XX6 net_042 A4 VSS VPW NLVT11LL_CKT W=310.00n L=40.00n
XX1 net11 A1 net18 VPW NLVT11LL_CKT W=310.00n L=40.00n
XX2 Z net11 VSS VPW NLVT11LL_CKT W=310.00n L=40.00n
XX4 net_054 A3 net_042 VPW NLVT11LL_CKT W=310.00n L=40.00n
XXN1 net18 A2 net_054 VPW NLVT11LL_CKT W=310.00n L=40.00n
XX7 net11 A4 VDD VNW PLVT11LL_CKT W=210.00n L=40.00n
XX5 net11 A3 VDD VNW PLVT11LL_CKT W=210.00n L=40.00n
XX3 Z net11 VDD VNW PLVT11LL_CKT W=455.00n L=40.00n
XX0 net11 A2 VDD VNW PLVT11LL_CKT W=210.00n L=40.00n
XXP1 net11 A1 VDD VNW PLVT11LL_CKT W=210.00n L=40.00n
.ENDS LVT_AND4HSV2
****Sub-Circuit for LVT_AND4HSV4, Wed Sep  5 13:54:26 CST 2012****
.SUBCKT LVT_AND4HSV4 A1 A2 A3 A4 Z VDD VSS
XX6 net_042 A4 VSS VPW NLVT11LL_CKT W=310.00n L=40.00n
XX1 net11 A1 net18 VPW NLVT11LL_CKT W=310.00n L=40.00n
XX2 Z net11 VSS VPW NLVT11LL_CKT W=620.00n L=40.00n
XX4 net_054 A3 net_042 VPW NLVT11LL_CKT W=310.00n L=40.00n
XXN1 net18 A2 net_054 VPW NLVT11LL_CKT W=310.00n L=40.00n
XX7 net11 A4 VDD VNW PLVT11LL_CKT W=210.00n L=40.00n
XX5 net11 A3 VDD VNW PLVT11LL_CKT W=210.00n L=40.00n
XX3 Z net11 VDD VNW PLVT11LL_CKT W=910.00n L=40.00n
XX0 net11 A2 VDD VNW PLVT11LL_CKT W=210.00n L=40.00n
XXP1 net11 A1 VDD VNW PLVT11LL_CKT W=210.00n L=40.00n
.ENDS LVT_AND4HSV4
****Sub-Circuit for LVT_AND4HSV8, Wed Sep  5 13:54:26 CST 2012****
.SUBCKT LVT_AND4HSV8 A1 A2 A3 A4 Z VDD VSS
XX6 net_042 A4 VSS VPW NLVT11LL_CKT W=310.00n L=40.00n
XX1 net11 A1 net18 VPW NLVT11LL_CKT W=310.00n L=40.00n
XX2 Z net11 VSS VPW NLVT11LL_CKT W=1.24u L=40.00n
XX4 net_054 A3 net_042 VPW NLVT11LL_CKT W=310.00n L=40.00n
XXN1 net18 A2 net_054 VPW NLVT11LL_CKT W=310.00n L=40.00n
XX7 net11 A4 VDD VNW PLVT11LL_CKT W=455.00n L=40.00n
XX5 net11 A3 VDD VNW PLVT11LL_CKT W=455.00n L=40.00n
XX3 Z net11 VDD VNW PLVT11LL_CKT W=1.82u L=40.00n
XX0 net11 A2 VDD VNW PLVT11LL_CKT W=455.00n L=40.00n
XXP1 net11 A1 VDD VNW PLVT11LL_CKT W=455.00n L=40.00n
.ENDS LVT_AND4HSV8
****Sub-Circuit for LVT_AOI211HSV1, Wed Sep  5 13:54:26 CST 2012****
.SUBCKT LVT_AOI211HSV1 A1 A2 B C ZN VDD VSS
XX6 ZN B VSS VPW NLVT11LL_CKT W=210.00n L=40.00n
XX1 ZN A1 net4 VPW NLVT11LL_CKT W=210.00n L=40.00n
XX4 ZN C VSS VPW NLVT11LL_CKT W=210.00n L=40.00n
XXN1 net4 A2 VSS VPW NLVT11LL_CKT W=210.00n L=40.00n
XX7 net3 A1 VDD VNW PLVT11LL_CKT W=310.00n L=40.00n
XX5 net3 A2 VDD VNW PLVT11LL_CKT W=310.00n L=40.00n
XX0 net2 B net3 VNW PLVT11LL_CKT W=310.00n L=40.00n
XXP1 ZN C net2 VNW PLVT11LL_CKT W=310.00n L=40.00n
.ENDS LVT_AOI211HSV1
****Sub-Circuit for LVT_AOI211HSV2, Wed Sep  5 13:54:26 CST 2012****
.SUBCKT LVT_AOI211HSV2 A1 A2 B C ZN VDD VSS
XX6 ZN B VSS VPW NLVT11LL_CKT W=310.00n L=40.00n
XX1 ZN A1 net4 VPW NLVT11LL_CKT W=310.00n L=40.00n
XX4 ZN C VSS VPW NLVT11LL_CKT W=310.00n L=40.00n
XXN1 net4 A2 VSS VPW NLVT11LL_CKT W=310.00n L=40.00n
XX7 net3 A1 VDD VNW PLVT11LL_CKT W=455.00n L=40.00n
XX5 net3 A2 VDD VNW PLVT11LL_CKT W=455.00n L=40.00n
XX0 net2 B net3 VNW PLVT11LL_CKT W=455.00n L=40.00n
XXP1 ZN C net2 VNW PLVT11LL_CKT W=455.00n L=40.00n
.ENDS LVT_AOI211HSV2
****Sub-Circuit for LVT_AOI21HSV1, Wed Sep  5 13:54:26 CST 2012****
.SUBCKT LVT_AOI21HSV1 A1 A2 B ZN VDD VSS
XX6 ZN B VSS VPW NLVT11LL_CKT W=210.00n L=40.00n
XX1 ZN A1 net4 VPW NLVT11LL_CKT W=210.00n L=40.00n
XXN1 net4 A2 VSS VPW NLVT11LL_CKT W=210.00n L=40.00n
XX7 net3 A1 VDD VNW PLVT11LL_CKT W=310.00n L=40.00n
XX5 net3 A2 VDD VNW PLVT11LL_CKT W=310.00n L=40.00n
XX0 ZN B net3 VNW PLVT11LL_CKT W=310.00n L=40.00n
.ENDS LVT_AOI21HSV1
****Sub-Circuit for LVT_AOI21HSV2, Wed Sep  5 13:54:26 CST 2012****
.SUBCKT LVT_AOI21HSV2 A1 A2 B ZN VDD VSS
XX6 ZN B VSS VPW NLVT11LL_CKT W=310.00n L=40.00n
XX1 ZN A1 net4 VPW NLVT11LL_CKT W=310.00n L=40.00n
XXN1 net4 A2 VSS VPW NLVT11LL_CKT W=310.00n L=40.00n
XX7 net3 A1 VDD VNW PLVT11LL_CKT W=455.00n L=40.00n
XX5 net3 A2 VDD VNW PLVT11LL_CKT W=455.00n L=40.00n
XX0 ZN B net3 VNW PLVT11LL_CKT W=455.00n L=40.00n
.ENDS LVT_AOI21HSV2
****Sub-Circuit for LVT_AOI221HSV1, Wed Sep  5 13:54:26 CST 2012****
.SUBCKT LVT_AOI221HSV1 A1 A2 B1 B2 C ZN VDD VSS
XX6 ZN C VSS VPW NLVT11LL_CKT W=210.00n L=40.00n
XX9 N3 B2 VSS VPW NLVT11LL_CKT W=210.00n L=40.00n
XX1 ZN A1 N14 VPW NLVT11LL_CKT W=210.00n L=40.00n
XX4 ZN B1 N3 VPW NLVT11LL_CKT W=210.00n L=40.00n
XXN1 N14 A2 VSS VPW NLVT11LL_CKT W=210.00n L=40.00n
XX8 N9 B1 N11 VNW PLVT11LL_CKT W=310.00n L=40.00n
XX7 N11 A1 VDD VNW PLVT11LL_CKT W=310.00n L=40.00n
XX5 N11 A2 VDD VNW PLVT11LL_CKT W=310.00n L=40.00n
XX0 N9 B2 N11 VNW PLVT11LL_CKT W=310.00n L=40.00n
XXP1 ZN C N9 VNW PLVT11LL_CKT W=310.00n L=40.00n
.ENDS LVT_AOI221HSV1
****Sub-Circuit for LVT_AOI221HSV2, Wed Sep  5 13:54:26 CST 2012****
.SUBCKT LVT_AOI221HSV2 A1 A2 B1 B2 C ZN VDD VSS
XX6 ZN C VSS VPW NLVT11LL_CKT W=310.00n L=40.00n
XX9 N3 B2 VSS VPW NLVT11LL_CKT W=310.00n L=40.00n
XX1 ZN A1 N14 VPW NLVT11LL_CKT W=310.00n L=40.00n
XX4 ZN B1 N3 VPW NLVT11LL_CKT W=310.00n L=40.00n
XXN1 N14 A2 VSS VPW NLVT11LL_CKT W=310.00n L=40.00n
XX8 N9 B1 N11 VNW PLVT11LL_CKT W=455.00n L=40.00n
XX7 N11 A1 VDD VNW PLVT11LL_CKT W=455.00n L=40.00n
XX5 N11 A2 VDD VNW PLVT11LL_CKT W=455.00n L=40.00n
XX0 N9 B2 N11 VNW PLVT11LL_CKT W=455.00n L=40.00n
XXP1 ZN C N9 VNW PLVT11LL_CKT W=455.00n L=40.00n
.ENDS LVT_AOI221HSV2
****Sub-Circuit for LVT_AOI222HSV1, Wed Sep  5 13:54:26 CST 2012****
.SUBCKT LVT_AOI222HSV1 A1 A2 B1 B2 C1 C2 ZN VDD VSS
XX6 ZN C1 net4 VPW NLVT11LL_CKT W=210.00n L=40.00n
XX10 net4 C2 VSS VPW NLVT11LL_CKT W=210.00n L=40.00n
XX9 net5 B2 VSS VPW NLVT11LL_CKT W=210.00n L=40.00n
XX1 ZN A1 net6 VPW NLVT11LL_CKT W=210.00n L=40.00n
XX4 ZN B1 net5 VPW NLVT11LL_CKT W=210.00n L=40.00n
XXN1 net6 A2 VSS VPW NLVT11LL_CKT W=210.00n L=40.00n
XX8 net2 B2 net1 VNW PLVT11LL_CKT W=310.0n L=40.00n
XX11 ZN A2 net2 VNW PLVT11LL_CKT W=310.0n L=40.00n
XX7 net1 C1 VDD VNW PLVT11LL_CKT W=310.0n L=40.00n
XX5 net1 C2 VDD VNW PLVT11LL_CKT W=310.0n L=40.00n
XX0 net2 B1 net1 VNW PLVT11LL_CKT W=310.0n L=40.00n
XXP1 ZN A1 net2 VNW PLVT11LL_CKT W=310.0n L=40.00n
.ENDS LVT_AOI222HSV1
****Sub-Circuit for LVT_AOI222HSV2, Wed Sep  5 13:54:26 CST 2012****
.SUBCKT LVT_AOI222HSV2 A1 A2 B1 B2 C1 C2 ZN VDD VSS
XX6 ZN C1 net4 VPW NLVT11LL_CKT W=310.00n L=40.00n
XX10 net4 C2 VSS VPW NLVT11LL_CKT W=310.00n L=40.00n
XX9 net5 B2 VSS VPW NLVT11LL_CKT W=310.00n L=40.00n
XX1 ZN A1 net6 VPW NLVT11LL_CKT W=310.00n L=40.00n
XX4 ZN B1 net5 VPW NLVT11LL_CKT W=310.00n L=40.00n
XXN1 net6 A2 VSS VPW NLVT11LL_CKT W=310.00n L=40.00n
XX8 net2 B2 net1 VNW PLVT11LL_CKT W=455.0n L=40.00n
XX11 ZN A2 net2 VNW PLVT11LL_CKT W=455.0n L=40.00n
XX7 net1 C1 VDD VNW PLVT11LL_CKT W=455.0n L=40.00n
XX5 net1 C2 VDD VNW PLVT11LL_CKT W=455.0n L=40.00n
XX0 net2 B1 net1 VNW PLVT11LL_CKT W=455.0n L=40.00n
XXP1 ZN A1 net2 VNW PLVT11LL_CKT W=455.0n L=40.00n
.ENDS LVT_AOI222HSV2
****Sub-Circuit for LVT_AOI22HSV1, Wed Sep  5 13:54:26 CST 2012****
.SUBCKT LVT_AOI22HSV1 A1 A2 B1 B2 ZN VDD VSS
XX9 N64 B2 VSS VPW NLVT11LL_CKT W=210.00n L=40.00n
XX1 ZN A1 N49 VPW NLVT11LL_CKT W=210.00n L=40.00n
XX4 ZN B1 N64 VPW NLVT11LL_CKT W=210.00n L=40.00n
XXN1 N49 A2 VSS VPW NLVT11LL_CKT W=210.00n L=40.00n
XX8 ZN B2 N69 VNW PLVT11LL_CKT W=310.00n L=40.00n
XX7 N69 A2 VDD VNW PLVT11LL_CKT W=310.00n L=40.00n
XX5 N69 A1 VDD VNW PLVT11LL_CKT W=310.00n L=40.00n
XX0 ZN B1 N69 VNW PLVT11LL_CKT W=310.00n L=40.00n
.ENDS LVT_AOI22HSV1
****Sub-Circuit for LVT_AOI22HSV2, Wed Sep  5 13:54:26 CST 2012****
.SUBCKT LVT_AOI22HSV2 A1 A2 B1 B2 ZN VDD VSS
XX9 N64 B2 VSS VPW NLVT11LL_CKT W=310.00n L=40.00n
XX1 ZN A1 N49 VPW NLVT11LL_CKT W=310.00n L=40.00n
XX4 ZN B1 N64 VPW NLVT11LL_CKT W=310.00n L=40.00n
XXN1 N49 A2 VSS VPW NLVT11LL_CKT W=310.00n L=40.00n
XX8 ZN B2 N69 VNW PLVT11LL_CKT W=455.00n L=40.00n
XX7 N69 A2 VDD VNW PLVT11LL_CKT W=455.00n L=40.00n
XX5 N69 A1 VDD VNW PLVT11LL_CKT W=455.00n L=40.00n
XX0 ZN B1 N69 VNW PLVT11LL_CKT W=455.00n L=40.00n
.ENDS LVT_AOI22HSV2
****Sub-Circuit for LVT_AOI31HSV1, Wed Sep  5 13:54:26 CST 2012****
.SUBCKT LVT_AOI31HSV1 A1 A2 A3 B ZN VDD VSS
XX6 ZN B VSS VPW NLVT11LL_CKT W=210.00n L=40.00n
XX1 ZN A1 net3 VPW NLVT11LL_CKT W=210.00n L=40.00n
XX9 net4 A3 VSS VPW NLVT11LL_CKT W=210.00n L=40.00n
XXN1 net3 A2 net4 VPW NLVT11LL_CKT W=210.00n L=40.00n
XX8 net1 A3 VDD VNW PLVT11LL_CKT W=310.00n L=40.00n
XX7 net1 A1 VDD VNW PLVT11LL_CKT W=310.00n L=40.00n
XX5 net1 A2 VDD VNW PLVT11LL_CKT W=310.00n L=40.00n
XX0 ZN B net1 VNW PLVT11LL_CKT W=310.00n L=40.00n
.ENDS LVT_AOI31HSV1
****Sub-Circuit for LVT_AOI31HSV2, Wed Sep  5 13:54:26 CST 2012****
.SUBCKT LVT_AOI31HSV2 A1 A2 A3 B ZN VDD VSS
XX6 ZN B VSS VPW NLVT11LL_CKT W=310.00n L=40.00n
XX1 ZN A1 net3 VPW NLVT11LL_CKT W=310.00n L=40.00n
XX9 net4 A3 VSS VPW NLVT11LL_CKT W=310.00n L=40.00n
XXN1 net3 A2 net4 VPW NLVT11LL_CKT W=310.00n L=40.00n
XX8 net1 A3 VDD VNW PLVT11LL_CKT W=455.00n L=40.00n
XX7 net1 A1 VDD VNW PLVT11LL_CKT W=455.00n L=40.00n
XX5 net1 A2 VDD VNW PLVT11LL_CKT W=455.00n L=40.00n
XX0 ZN B net1 VNW PLVT11LL_CKT W=455.00n L=40.00n
.ENDS LVT_AOI31HSV2
****Sub-Circuit for LVT_AOI32HSV1, Wed Sep  5 13:54:26 CST 2012****
.SUBCKT LVT_AOI32HSV1 A1 A2 A3 B1 B2 ZN VDD VSS
XX6 ZN B1 net5 VPW NLVT11LL_CKT W=210.00n L=40.00n
XX1 ZN A1 net3 VPW NLVT11LL_CKT W=210.00n L=40.00n
XX9 net4 A3 VSS VPW NLVT11LL_CKT W=210.00n L=40.00n
XX11 net5 B2 VSS VPW NLVT11LL_CKT W=210.00n L=40.00n
XXN1 net3 A2 net4 VPW NLVT11LL_CKT W=210.00n L=40.00n
XX8 net1 A3 VDD VNW PLVT11LL_CKT W=310.00n L=40.00n
XX10 ZN B2 net1 VNW PLVT11LL_CKT W=310.00n L=40.00n
XX7 net1 A1 VDD VNW PLVT11LL_CKT W=310.00n L=40.00n
XX5 net1 A2 VDD VNW PLVT11LL_CKT W=310.00n L=40.00n
XX0 ZN B1 net1 VNW PLVT11LL_CKT W=310.00n L=40.00n
.ENDS LVT_AOI32HSV1
****Sub-Circuit for LVT_AOI32HSV2, Wed Sep  5 13:54:26 CST 2012****
.SUBCKT LVT_AOI32HSV2 A1 A2 A3 B1 B2 ZN VDD VSS
XX6 ZN B1 net5 VPW NLVT11LL_CKT W=310.00n L=40.00n
XX1 ZN A1 net3 VPW NLVT11LL_CKT W=310.00n L=40.00n
XX9 net4 A3 VSS VPW NLVT11LL_CKT W=310.00n L=40.00n
XX11 net5 B2 VSS VPW NLVT11LL_CKT W=310.00n L=40.00n
XXN1 net3 A2 net4 VPW NLVT11LL_CKT W=310.00n L=40.00n
XX8 net1 A3 VDD VNW PLVT11LL_CKT W=455.00n L=40.00n
XX10 ZN B2 net1 VNW PLVT11LL_CKT W=455.00n L=40.00n
XX7 net1 A1 VDD VNW PLVT11LL_CKT W=455.00n L=40.00n
XX5 net1 A2 VDD VNW PLVT11LL_CKT W=455.00n L=40.00n
XX0 ZN B1 net1 VNW PLVT11LL_CKT W=455.00n L=40.00n
.ENDS LVT_AOI32HSV2
****Sub-Circuit for LVT_AOI33HSV1, Wed Sep  5 13:54:26 CST 2012****
.SUBCKT LVT_AOI33HSV1 A1 A2 A3 B1 B2 B3 ZN VDD VSS
XX12 net_69 B3 VSS VPW NLVT11LL_CKT W=210.00n L=40.00n
XX6 ZN B1 net5 VPW NLVT11LL_CKT W=210.00n L=40.00n
XX1 ZN A1 net3 VPW NLVT11LL_CKT W=210.00n L=40.00n
XX9 net4 A3 VSS VPW NLVT11LL_CKT W=210.00n L=40.00n
XX11 net5 B2 net_69 VPW NLVT11LL_CKT W=210.00n L=40.00n
XXN1 net3 A2 net4 VPW NLVT11LL_CKT W=210.00n L=40.00n
XX8 net1 A3 VDD VNW PLVT11LL_CKT W=310.00n L=40.00n
XX10 ZN B2 net1 VNW PLVT11LL_CKT W=310.00n L=40.00n
XX7 net1 A1 VDD VNW PLVT11LL_CKT W=310.00n L=40.00n
XX5 net1 A2 VDD VNW PLVT11LL_CKT W=310.00n L=40.00n
XX13 ZN B3 net1 VNW PLVT11LL_CKT W=310.00n L=40.00n
XX0 ZN B1 net1 VNW PLVT11LL_CKT W=310.00n L=40.00n
.ENDS LVT_AOI33HSV1
****Sub-Circuit for LVT_AOI33HSV2, Wed Sep  5 13:54:26 CST 2012****
.SUBCKT LVT_AOI33HSV2 A1 A2 A3 B1 B2 B3 ZN VDD VSS
XX12 net_69 B3 VSS VPW NLVT11LL_CKT W=310.00n L=40.00n
XX6 ZN B1 net5 VPW NLVT11LL_CKT W=310.00n L=40.00n
XX1 ZN A1 net3 VPW NLVT11LL_CKT W=310.00n L=40.00n
XX9 net4 A3 VSS VPW NLVT11LL_CKT W=310.00n L=40.00n
XX11 net5 B2 net_69 VPW NLVT11LL_CKT W=310.00n L=40.00n
XXN1 net3 A2 net4 VPW NLVT11LL_CKT W=310.00n L=40.00n
XX8 net1 A3 VDD VNW PLVT11LL_CKT W=455.00n L=40.00n
XX10 ZN B2 net1 VNW PLVT11LL_CKT W=455.00n L=40.00n
XX7 net1 A1 VDD VNW PLVT11LL_CKT W=455.00n L=40.00n
XX5 net1 A2 VDD VNW PLVT11LL_CKT W=455.00n L=40.00n
XX13 ZN B3 net1 VNW PLVT11LL_CKT W=455.00n L=40.00n
XX0 ZN B1 net1 VNW PLVT11LL_CKT W=455.00n L=40.00n
.ENDS LVT_AOI33HSV2
****Sub-Circuit for LVT_BUFHSV1, Wed Sep  5 13:54:26 CST 2012****
.SUBCKT LVT_BUFHSV1 I Z VDD VSS
XX2 Z net7 VSS VPW NLVT11LL_CKT W=210.00n L=40.00n
XX0 net7 I VSS VPW NLVT11LL_CKT W=140.00n L=40.00n
XX3 Z net7 VDD VNW PLVT11LL_CKT W=310.00n L=40.00n
XX1 net7 I VDD VNW PLVT11LL_CKT W=210.00n L=40.00n
.ENDS LVT_BUFHSV1
****Sub-Circuit for LVT_BUFHSV12, Wed Sep  5 13:54:26 CST 2012****
.SUBCKT LVT_BUFHSV12 I Z VDD VSS
XX2 Z net7 VSS VPW NLVT11LL_CKT W=1.86u L=40.00n
XX0 net7 I VSS VPW NLVT11LL_CKT W=720.00n L=40.00n
XX3 Z net7 VDD VNW PLVT11LL_CKT W=2.73u L=40.00n
XX1 net7 I VDD VNW PLVT11LL_CKT W=1.08u L=40.00n
.ENDS LVT_BUFHSV12
****Sub-Circuit for LVT_BUFHSV16, Wed Sep  5 13:54:26 CST 2012****
.SUBCKT LVT_BUFHSV16 I Z VDD VSS
XX2 Z net7 VSS VPW NLVT11LL_CKT W=2.48u L=40.00n
XX0 net7 I VSS VPW NLVT11LL_CKT W=930.00n L=40.00n
XX3 Z net7 VDD VNW PLVT11LL_CKT W=3.64u L=40.00n
XX1 net7 I VDD VNW PLVT11LL_CKT W=1.365u L=40.00n
.ENDS LVT_BUFHSV16
****Sub-Circuit for LVT_BUFHSV2, Wed Sep  5 13:54:26 CST 2012****
.SUBCKT LVT_BUFHSV2 I Z VDD VSS
XX2 Z net7 VSS VPW NLVT11LL_CKT W=310.00n L=40.00n
XX0 net7 I VSS VPW NLVT11LL_CKT W=140.00n L=40.00n
XX3 Z net7 VDD VNW PLVT11LL_CKT W=455.00n L=40.00n
XX1 net7 I VDD VNW PLVT11LL_CKT W=210.00n L=40.00n
.ENDS LVT_BUFHSV2
****Sub-Circuit for LVT_BUFHSV20, Wed Sep  5 13:54:26 CST 2012****
.SUBCKT LVT_BUFHSV20 I Z VDD VSS
XX2 Z net7 VSS VPW NLVT11LL_CKT W=3.1u L=40.00n
XX0 net7 I VSS VPW NLVT11LL_CKT W=1.24u L=40.00n
XX3 Z net7 VDD VNW PLVT11LL_CKT W=4.55u L=40.00n
XX1 net7 I VDD VNW PLVT11LL_CKT W=1.82u L=40.00n
.ENDS LVT_BUFHSV20
****Sub-Circuit for LVT_BUFHSV24, Wed Sep  5 13:54:26 CST 2012****
.SUBCKT LVT_BUFHSV24 I Z VDD VSS
XX2 Z net7 VSS VPW NLVT11LL_CKT W=3.72u L=40.00n
XX0 net7 I VSS VPW NLVT11LL_CKT W=1.55u L=40.00n
XX3 Z net7 VDD VNW PLVT11LL_CKT W=5.46u L=40.00n
XX1 net7 I VDD VNW PLVT11LL_CKT W=2.275u L=40.00n
.ENDS LVT_BUFHSV24
****Sub-Circuit for LVT_BUFHSV3, Wed Sep  5 13:54:26 CST 2012****
.SUBCKT LVT_BUFHSV3 I Z VDD VSS
XX2 Z net7 VSS VPW NLVT11LL_CKT W=460.00n L=40.00n
XX0 net7 I VSS VPW NLVT11LL_CKT W=190.00n L=40.00n
XX3 Z net7 VDD VNW PLVT11LL_CKT W=700.00n L=40.00n
XX1 net7 I VDD VNW PLVT11LL_CKT W=280.00n L=40.00n
.ENDS LVT_BUFHSV3
****Sub-Circuit for LVT_BUFHSV4, Wed Sep  5 13:54:26 CST 2012****
.SUBCKT LVT_BUFHSV4 I Z VDD VSS
XX2 Z net7 VSS VPW NLVT11LL_CKT W=620.00n L=40.00n
XX0 net7 I VSS VPW NLVT11LL_CKT W=240.00n L=40.00n
XX3 Z net7 VDD VNW PLVT11LL_CKT W=910.00n L=40.00n
XX1 net7 I VDD VNW PLVT11LL_CKT W=370.00n L=40.00n
.ENDS LVT_BUFHSV4
****Sub-Circuit for LVT_BUFHSV6, Wed Sep  5 13:54:26 CST 2012****
.SUBCKT LVT_BUFHSV6 I Z VDD VSS
XX2 Z net7 VSS VPW NLVT11LL_CKT W=930.00n L=40.00n
XX0 net7 I VSS VPW NLVT11LL_CKT W=310.00n L=40.00n
XX3 Z net7 VDD VNW PLVT11LL_CKT W=1.365u L=40.00n
XX1 net7 I VDD VNW PLVT11LL_CKT W=455.00n L=40.00n
.ENDS LVT_BUFHSV6
****Sub-Circuit for LVT_BUFHSV8, Wed Sep  5 13:54:26 CST 2012****
.SUBCKT LVT_BUFHSV8 I Z VDD VSS
XX2 Z net7 VSS VPW NLVT11LL_CKT W=1.24u L=40.00n
XX0 net7 I VSS VPW NLVT11LL_CKT W=480.00n L=40.00n
XX3 Z net7 VDD VNW PLVT11LL_CKT W=1.82u L=40.00n
XX1 net7 I VDD VNW PLVT11LL_CKT W=740.00n L=40.00n
.ENDS LVT_BUFHSV8
****Sub-Circuit for LVT_CKMUX2HSV1, Wed Sep  5 13:54:26 CST 2012****
.SUBCKT LVT_CKMUX2HSV1 I0 I1 S Z VDD VSS
XX47 net41 S net64 VPW NLVT11LL_CKT W=270.00n L=40.00n
XX51 Z net64 VSS VPW NLVT11LL_CKT W=180.00n L=40.00n
XX49 net39 I0 VSS VPW NLVT11LL_CKT W=270.00n L=40.00n
XX31 net41 I1 VSS VPW NLVT11LL_CKT W=270.00n L=40.00n
XX53 net43 S VSS VPW NLVT11LL_CKT W=270.00n L=40.00n
XX36 net39 net43 net64 VPW NLVT11LL_CKT W=270.00n L=40.00n
XX50 net39 I0 VDD VNW PLVT11LL_CKT W=310.00n L=40.00n
XX52 Z net64 VDD VNW PLVT11LL_CKT W=315.00n L=40.00n
XX48 net41 net43 net64 VNW PLVT11LL_CKT W=310.00n L=40.00n
XX32 net41 I1 VDD VNW PLVT11LL_CKT W=310.00n L=40.00n
XX54 net43 S VDD VNW PLVT11LL_CKT W=250.00n L=40.00n
XX39 net39 S net64 VNW PLVT11LL_CKT W=300.00n L=40.00n
.ENDS LVT_CKMUX2HSV1
****Sub-Circuit for LVT_CKMUX2HSV2, Wed Sep  5 13:54:26 CST 2012****
.SUBCKT LVT_CKMUX2HSV2 I0 I1 S Z VDD VSS
XX47 net41 S net64 VPW NLVT11LL_CKT W=270n L=40.00n
XX51 Z net64 VSS VPW NLVT11LL_CKT W=250.00n L=40.00n
XX49 net39 I0 VSS VPW NLVT11LL_CKT W=270.00n L=40.00n
XX31 net41 I1 VSS VPW NLVT11LL_CKT W=270.00n L=40.00n
XX53 net43 S VSS VPW NLVT11LL_CKT W=270.00n L=40.00n
XX36 net39 net43 net64 VPW NLVT11LL_CKT W=270.00n L=40.00n
XX50 net39 I0 VDD VNW PLVT11LL_CKT W=310.00n L=40.00n
XX52 Z net64 VDD VNW PLVT11LL_CKT W=430.00n L=40.00n
XX48 net41 net43 net64 VNW PLVT11LL_CKT W=310.00n L=40.00n
XX32 net41 I1 VDD VNW PLVT11LL_CKT W=310.00n L=40.00n
XX54 net43 S VDD VNW PLVT11LL_CKT W=250.00n L=40.00n
XX39 net39 S net64 VNW PLVT11LL_CKT W=300.00n L=40.00n
.ENDS LVT_CKMUX2HSV2
****Sub-Circuit for LVT_CLKAND2HSV1, Wed Sep  5 13:54:26 CST 2012****
.SUBCKT LVT_CLKAND2HSV1 A1 A2 Z VDD VSS
XX1 net11 A1 net18 VPW NLVT11LL_CKT W=310.00n L=40.00n
XX2 Z net11 VSS VPW NLVT11LL_CKT W=180.00n L=40.00n
XXN1 net18 A2 VSS VPW NLVT11LL_CKT W=310.00n L=40.00n
XX3 Z net11 VDD VNW PLVT11LL_CKT W=315.00n L=40.00n
XX0 net11 A2 VDD VNW PLVT11LL_CKT W=210.00n L=40.00n
XXP1 net11 A1 VDD VNW PLVT11LL_CKT W=210.00n L=40.00n
.ENDS LVT_CLKAND2HSV1
****Sub-Circuit for LVT_CLKAND2HSV2, Wed Sep  5 13:54:26 CST 2012****
.SUBCKT LVT_CLKAND2HSV2 A1 A2 Z VDD VSS
XX1 net11 A1 net18 VPW NLVT11LL_CKT W=310.00n L=40.00n
XX2 Z net11 VSS VPW NLVT11LL_CKT W=250.00n L=40.00n
XXN1 net18 A2 VSS VPW NLVT11LL_CKT W=310.00n L=40.00n
XX3 Z net11 VDD VNW PLVT11LL_CKT W=455.00n L=40.00n
XX0 net11 A2 VDD VNW PLVT11LL_CKT W=210.00n L=40.00n
XXP1 net11 A1 VDD VNW PLVT11LL_CKT W=210.00n L=40.00n
.ENDS LVT_CLKAND2HSV2
****Sub-Circuit for LVT_CLKAND2HSV4, Wed Sep  5 13:54:26 CST 2012****
.SUBCKT LVT_CLKAND2HSV4 A1 A2 Z VDD VSS
XX1 net11 A1 net18 VPW NLVT11LL_CKT W=310.00n L=40.00n
XX2 Z net11 VSS VPW NLVT11LL_CKT W=620.00n L=40.00n
XXN1 net18 A2 VSS VPW NLVT11LL_CKT W=310.00n L=40.00n
XX3 Z net11 VDD VNW PLVT11LL_CKT W=1.365u L=40.00n
XX0 net11 A2 VDD VNW PLVT11LL_CKT W=210.00n L=40.00n
XXP1 net11 A1 VDD VNW PLVT11LL_CKT W=210.00n L=40.00n
.ENDS LVT_CLKAND2HSV4
****Sub-Circuit for LVT_CLKAND2HSV8, Wed Sep  5 13:54:26 CST 2012****
.SUBCKT LVT_CLKAND2HSV8 A1 A2 Z VDD VSS
XX1 net11 A1 net18 VPW NLVT11LL_CKT W=310.00n L=40.00n
XX2 Z net11 VSS VPW NLVT11LL_CKT W=1.215u L=40.00n
XXN1 net18 A2 VSS VPW NLVT11LL_CKT W=310.00n L=40.00n
XX3 Z net11 VDD VNW PLVT11LL_CKT W=2.73u L=40.00n
XX0 net11 A2 VDD VNW PLVT11LL_CKT W=210.00n L=40.00n
XXP1 net11 A1 VDD VNW PLVT11LL_CKT W=210.00n L=40.00n
.ENDS LVT_CLKAND2HSV8
****Sub-Circuit for LVT_CLKBUFHSV1, Wed Sep  5 13:54:26 CST 2012****
.SUBCKT LVT_CLKBUFHSV1 I Z VDD VSS
XX2 Z net7 VSS VPW NLVT11LL_CKT W=180.00n L=40.00n
XX0 net7 I VSS VPW NLVT11LL_CKT W=140.00n L=40.00n
XX3 Z net7 VDD VNW PLVT11LL_CKT W=315.00n L=40.00n
XX1 net7 I VDD VNW PLVT11LL_CKT W=210.00n L=40.00n
.ENDS LVT_CLKBUFHSV1
****Sub-Circuit for LVT_CLKBUFHSV12, Wed Sep  5 13:54:26 CST 2012****
.SUBCKT LVT_CLKBUFHSV12 I Z VDD VSS
XX2 Z net7 VSS VPW NLVT11LL_CKT W=1.35u L=40.00n
XX0 net7 I VSS VPW NLVT11LL_CKT W=450.00n L=40.00n
XX3 Z net7 VDD VNW PLVT11LL_CKT W=2.73u L=40.00n
XX1 net7 I VDD VNW PLVT11LL_CKT W=910.00n L=40.00n
.ENDS LVT_CLKBUFHSV12
****Sub-Circuit for LVT_CLKBUFHSV16, Wed Sep  5 13:54:26 CST 2012****
.SUBCKT LVT_CLKBUFHSV16 I Z VDD VSS
XX2 Z net7 VSS VPW NLVT11LL_CKT W=1.8u L=40.00n
XX0 net7 I VSS VPW NLVT11LL_CKT W=590.00n L=40.00n
XX3 Z net7 VDD VNW PLVT11LL_CKT W=3.64u L=40.00n
XX1 net7 I VDD VNW PLVT11LL_CKT W=1.2u L=40.00n
.ENDS LVT_CLKBUFHSV16
****Sub-Circuit for LVT_CLKBUFHSV2, Wed Sep  5 13:54:26 CST 2012****
.SUBCKT LVT_CLKBUFHSV2 I Z VDD VSS
XX2 Z net7 VSS VPW NLVT11LL_CKT W=250.00n L=40.00n
XX0 net7 I VSS VPW NLVT11LL_CKT W=140.00n L=40.00n
XX3 Z net7 VDD VNW PLVT11LL_CKT W=455.00n L=40.00n
XX1 net7 I VDD VNW PLVT11LL_CKT W=210.00n L=40.00n
.ENDS LVT_CLKBUFHSV2
****Sub-Circuit for LVT_CLKBUFHSV20, Wed Sep  5 13:54:26 CST 2012****
.SUBCKT LVT_CLKBUFHSV20 I Z VDD VSS
XX2 Z net7 VSS VPW NLVT11LL_CKT W=2.295u L=40.00n
XX0 net7 I VSS VPW NLVT11LL_CKT W=765.00n L=40.00n
XX3 Z net7 VDD VNW PLVT11LL_CKT W=4.55u L=40.00n
XX1 net7 I VDD VNW PLVT11LL_CKT W=1.6u L=40.00n
.ENDS LVT_CLKBUFHSV20
****Sub-Circuit for LVT_CLKBUFHSV24, Wed Sep  5 13:54:26 CST 2012****
.SUBCKT LVT_CLKBUFHSV24 I Z VDD VSS
XX2 Z net7 VSS VPW NLVT11LL_CKT W=2.7u L=40.00n
XX0 net7 I VSS VPW NLVT11LL_CKT W=900.00n L=40.00n
XX3 Z net7 VDD VNW PLVT11LL_CKT W=5.46u L=40.00n
XX1 net7 I VDD VNW PLVT11LL_CKT W=1.82u L=40.00n
.ENDS LVT_CLKBUFHSV24
****Sub-Circuit for LVT_CLKBUFHSV3, Wed Sep  5 13:54:26 CST 2012****
.SUBCKT LVT_CLKBUFHSV3 I Z VDD VSS
XX2 Z net7 VSS VPW NLVT11LL_CKT W=380.00n L=40.00n
XX0 net7 I VSS VPW NLVT11LL_CKT W=190.00n L=40.00n
XX3 Z net7 VDD VNW PLVT11LL_CKT W=700.00n L=40.00n
XX1 net7 I VDD VNW PLVT11LL_CKT W=350.00n L=40.00n
.ENDS LVT_CLKBUFHSV3
****Sub-Circuit for LVT_CLKBUFHSV4, Wed Sep  5 13:54:26 CST 2012****
.SUBCKT LVT_CLKBUFHSV4 I Z VDD VSS
XX2 Z net7 VSS VPW NLVT11LL_CKT W=500.00n L=40.00n
XX0 net7 I VSS VPW NLVT11LL_CKT W=260.00n L=40.00n
XX3 Z net7 VDD VNW PLVT11LL_CKT W=910.00n L=40.00n
XX1 net7 I VDD VNW PLVT11LL_CKT W=445.00n L=40.00n
.ENDS LVT_CLKBUFHSV4
****Sub-Circuit for LVT_CLKBUFHSV6, Wed Sep  5 13:54:26 CST 2012****
.SUBCKT LVT_CLKBUFHSV6 I Z VDD VSS
XX2 Z net7 VSS VPW NLVT11LL_CKT W=720.00n L=40.00n
XX0 net7 I VSS VPW NLVT11LL_CKT W=240.00n L=40.00n
XX3 Z net7 VDD VNW PLVT11LL_CKT W=1.365u L=40.00n
XX1 net7 I VDD VNW PLVT11LL_CKT W=455.00n L=40.00n
.ENDS LVT_CLKBUFHSV6
****Sub-Circuit for LVT_CLKBUFHSV8, Wed Sep  5 13:54:26 CST 2012****
.SUBCKT LVT_CLKBUFHSV8 I Z VDD VSS
XX2 Z net7 VSS VPW NLVT11LL_CKT W=930.00n L=40.00n
XX0 net7 I VSS VPW NLVT11LL_CKT W=300.00n L=40.00n
XX3 Z net7 VDD VNW PLVT11LL_CKT W=1.82u L=40.00n
XX1 net7 I VDD VNW PLVT11LL_CKT W=610.00n L=40.00n
.ENDS LVT_CLKBUFHSV8
****Sub-Circuit for LVT_CLKLANQHSV1, Wed Sep  5 13:54:26 CST 2012****
.SUBCKT LVT_CLKLANQHSV1 CK E Q TE VDD VSS
XX6 net0112 TE VSS VPW NLVT11LL_CKT W=225.00n L=40.00n
XX9 net0112 E VSS VPW NLVT11LL_CKT W=225.00n L=40.00n
XX52 nt12 net076 VSS VPW NLVT11LL_CKT W=150.00n L=40.00n
XX1 c cn VSS VPW NLVT11LL_CKT W=320.00n L=40.00n
XX2 cn CK VSS VPW NLVT11LL_CKT W=140.00n L=40.00n
XX22 Q net0106 VSS VPW NLVT11LL_CKT W=200.00n L=40.00n
XX36 net0128 c nt12 VPW NLVT11LL_CKT W=150.00n L=40.00n
XX7 net0106 c net068 VPW NLVT11LL_CKT W=310.00n L=40.00n
XX16 net068 net076 VSS VPW NLVT11LL_CKT W=310.00n L=40.00n
XX3 net076 net0128 VSS VPW NLVT11LL_CKT W=225.00n L=40.00n