****Sub-Circuit for DGRNHSV1, Wed Dec  8 11:21:15 CST 2010****
.SUBCKT DGRNHSV1 CK D Q QN RN VDD VSS
MM39 QN net43 VSS VPW N12LL W=290.00n L=60.00n
MM3 m c net43 VPW N12LL W=340.00n L=60.00n
MM30 c cn VSS VPW N12LL W=300.00n L=60.00n
MM27 cn CK VSS VPW N12LL W=300.00n L=60.00n
MM38 net_0162 RN VSS VPW N12LL W=250.00n L=60.00n
MM24 net48 cn net43 VPW N12LL W=200.00n L=60.00n
MM23 VSS s net48 VPW N12LL W=200.00n L=60.00n
MM19 Q s VSS VPW N12LL W=290.00n L=60.00n
MM17 s net43 VSS VPW N12LL W=260.00n L=60.00n
MM12 net52 c pm VPW N12LL W=200.00n L=60.00n
MM11 VSS m net52 VPW N12LL W=200.00n L=60.00n
MM9 pm cn net69 VPW N12LL W=250.00n L=60.00n
MM7 net69 D net_0162 VPW N12LL W=250.00n L=60.00n
MM0 m pm VSS VPW N12LL W=340.00n L=60.00n
MM40 QN net43 VDD VNW P12LL W=440.00n L=60.00n
MM4 m cn net43 VNW P12LL W=500.00n L=60.00n
MM29 c cn VDD VNW P12LL W=450.00n L=60.00n
MM28 cn CK VDD VNW P12LL W=450.00n L=60.00n
MM37 net128 RN VDD VNW P12LL W=300.00n L=60.00n
MM26 VDD s net109 VNW P12LL W=300.00n L=60.00n
MM25 net109 c net43 VNW P12LL W=300.00n L=60.00n
MM20 Q s VDD VNW P12LL W=440.00n L=60.00n
MM18 s net43 VDD VNW P12LL W=390.00n L=60.00n
MM14 net117 cn pm VNW P12LL W=300.00n L=60.00n
MM13 VDD m net117 VNW P12LL W=300.00n L=60.00n
MM10 pm c net128 VNW P12LL W=330.00n L=60.00n
MM8 net128 D VDD VNW P12LL W=330.00n L=60.00n
MM1 m pm VDD VNW P12LL W=500.00n L=60.00n
.ENDS DGRNHSV1
****Sub-Circuit for DGRNHSV2, Wed Dec  8 11:21:15 CST 2010****
.SUBCKT DGRNHSV2 CK D Q QN RN VDD VSS
MM39 QN net43 VSS VPW N12LL W=430.00n L=60.00n
MM3 m c net43 VPW N12LL W=360.00n L=60.00n
MM30 c cn VSS VPW N12LL W=340.00n L=60.00n
MM27 cn CK VSS VPW N12LL W=340.00n L=60.00n
MM38 net_0162 RN VSS VPW N12LL W=340.00n L=60.00n
MM24 net48 cn net43 VPW N12LL W=200.00n L=60.00n
MM23 VSS s net48 VPW N12LL W=200.00n L=60.00n
MM19 Q s VSS VPW N12LL W=430.00n L=60.00n
MM17 s net43 VSS VPW N12LL W=300.00n L=60.00n
MM12 net52 c pm VPW N12LL W=200.00n L=60.00n
MM11 VSS m net52 VPW N12LL W=200.00n L=60.00n
MM9 pm cn net69 VPW N12LL W=340.00n L=60.00n
MM7 net69 D net_0162 VPW N12LL W=340.00n L=60.00n
MM0 m pm VSS VPW N12LL W=350.00n L=60.00n
MM40 QN net43 VDD VNW P12LL W=650.00n L=60.00n
MM4 m cn net43 VNW P12LL W=540.00n L=60.00n
MM29 c cn VDD VNW P12LL W=500.00n L=60.00n
MM28 cn CK VDD VNW P12LL W=500.00n L=60.00n
MM37 net128 RN VDD VNW P12LL W=300.00n L=60.00n
MM26 VDD s net109 VNW P12LL W=300.00n L=60.00n
MM25 net109 c net43 VNW P12LL W=300.00n L=60.00n
MM20 Q s VDD VNW P12LL W=650.00n L=60.00n
MM18 s net43 VDD VNW P12LL W=450.00n L=60.00n
MM14 net117 cn pm VNW P12LL W=300.00n L=60.00n
MM13 VDD m net117 VNW P12LL W=300.00n L=60.00n
MM10 pm c net128 VNW P12LL W=440.00n L=60.00n
MM8 net128 D VDD VNW P12LL W=440.00n L=60.00n
MM1 m pm VDD VNW P12LL W=540.00n L=60.00n
.ENDS DGRNHSV2
****Sub-Circuit for DGRNHSV4, Wed Dec  8 11:21:15 CST 2010****
.SUBCKT DGRNHSV4 CK D Q QN RN VDD VSS
MM39 QN net43 VSS VPW N12LL W=860.00n L=60.00n
MM3 m c net43 VPW N12LL W=390.00n L=60.00n
MM30 c cn VSS VPW N12LL W=290.00n L=60.00n
MM27 cn CK VSS VPW N12LL W=360.00n L=60.00n
MM38 net_0162 RN VSS VPW N12LL W=340.00n L=60.00n
MM24 net48 cn net43 VPW N12LL W=200.00n L=60.00n
MM23 VSS s net48 VPW N12LL W=200.00n L=60.00n
MM19 Q s VSS VPW N12LL W=860.00n L=60.00n
MM17 s net43 VSS VPW N12LL W=360.00n L=60.00n
MM12 net52 c pm VPW N12LL W=300.00n L=60.00n
MM11 VSS m net52 VPW N12LL W=300.00n L=60.00n
MM9 pm cn net69 VPW N12LL W=340.00n L=60.00n
MM7 net69 D net_0162 VPW N12LL W=340.00n L=60.00n
MM0 m pm VSS VPW N12LL W=390.00n L=60.00n
MM40 QN net43 VDD VNW P12LL W=1.3u L=60.00n
MM4 m cn net43 VNW P12LL W=580.00n L=60.00n
MM29 c cn VDD VNW P12LL W=440.0n L=60.00n
MM28 cn CK VDD VNW P12LL W=540.0n L=60.00n
MM37 net128 RN VDD VNW P12LL W=300.00n L=60.00n
MM26 VDD s net109 VNW P12LL W=300.00n L=60.00n
MM25 net109 c net43 VNW P12LL W=300.00n L=60.00n
MM20 Q s VDD VNW P12LL W=1.3u L=60.00n
MM18 s net43 VDD VNW P12LL W=540.00n L=60.00n
MM14 net117 cn pm VNW P12LL W=450.00n L=60.00n
MM13 VDD m net117 VNW P12LL W=450.00n L=60.00n
MM10 pm c net128 VNW P12LL W=440.00n L=60.00n
MM8 net128 D VDD VNW P12LL W=440.00n L=60.00n
MM1 m pm VDD VNW P12LL W=580.00n L=60.00n
.ENDS DGRNHSV4
****Sub-Circuit for DGRNQHSV1, Wed Dec  8 11:21:15 CST 2010****
.SUBCKT DGRNQHSV1 CK D Q RN VDD VSS
MM3 m c net43 VPW N12LL W=340.00n L=60.00n
MM30 c cn VSS VPW N12LL W=300.00n L=60.00n
MM27 cn CK VSS VPW N12LL W=300.00n L=60.00n
MM38 net_0162 RN VSS VPW N12LL W=250.00n L=60.00n
MM24 net48 cn net43 VPW N12LL W=200.00n L=60.00n
MM23 VSS s net48 VPW N12LL W=200.00n L=60.00n
MM19 Q s VSS VPW N12LL W=290.00n L=60.00n
MM17 s net43 VSS VPW N12LL W=260.00n L=60.00n
MM12 net52 c pm VPW N12LL W=300.00n L=60.00n
MM11 VSS m net52 VPW N12LL W=300.00n L=60.00n
MM9 pm cn net69 VPW N12LL W=250.00n L=60.00n
MM7 net69 D net_0162 VPW N12LL W=250.00n L=60.00n
MM0 m pm VSS VPW N12LL W=340.00n L=60.00n
MM4 m cn net43 VNW P12LL W=500.00n L=60.00n
MM29 c cn VDD VNW P12LL W=450.00n L=60.00n
MM28 cn CK VDD VNW P12LL W=450.00n L=60.00n
MM37 net128 RN VDD VNW P12LL W=300.00n L=60.00n
MM26 VDD s net109 VNW P12LL W=300.00n L=60.00n
MM25 net109 c net43 VNW P12LL W=300.00n L=60.00n
MM20 Q s VDD VNW P12LL W=440.00n L=60.00n
MM18 s net43 VDD VNW P12LL W=390.00n L=60.00n
MM14 net117 cn pm VNW P12LL W=450.00n L=60.00n
MM13 VDD m net117 VNW P12LL W=450.00n L=60.00n
MM10 pm c net128 VNW P12LL W=330.00n L=60.00n
MM8 net128 D VDD VNW P12LL W=330.00n L=60.00n
MM1 m pm VDD VNW P12LL W=500.00n L=60.00n
.ENDS DGRNQHSV1
****Sub-Circuit for DGRNQHSV2, Fri Dec 10 10:21:28 CST 2010****
.SUBCKT DGRNQHSV2 CK D Q RN VDD VSS
MM3 m c net43 VPW N12LL W=360.00n L=60.00n
MM30 c cn VSS VPW N12LL W=340.00n L=60.00n
MM27 cn CK VSS VPW N12LL W=340.00n L=60.00n
MM38 net_0162 RN VSS VPW N12LL W=270.00n L=60.00n
MM24 net48 cn net43 VPW N12LL W=200.00n L=60.00n
MM23 VSS s net48 VPW N12LL W=200.00n L=60.00n
MM19 Q s VSS VPW N12LL W=430.00n L=60.00n
MM17 s net43 VSS VPW N12LL W=300.00n L=60.00n
MM12 net52 c pm VPW N12LL W=300.00n L=60.00n
MM11 VSS m net52 VPW N12LL W=300.00n L=60.00n
MM9 pm cn net69 VPW N12LL W=270.00n L=60.00n
MM7 net69 D net_0162 VPW N12LL W=270.00n L=60.00n
MM0 m pm VSS VPW N12LL W=350.00n L=60.00n
MM4 m cn net43 VNW P12LL W=540.00n L=60.00n
MM29 c cn VDD VNW P12LL W=500.00n L=60.00n
MM28 cn CK VDD VNW P12LL W=500.00n L=60.00n
MM37 net128 RN VDD VNW P12LL W=300.00n L=60.00n
MM26 VDD s net109 VNW P12LL W=300.00n L=60.00n
MM25 net109 c net43 VNW P12LL W=300.00n L=60.00n
MM20 Q s VDD VNW P12LL W=650.00n L=60.00n
MM18 s net43 VDD VNW P12LL W=450.00n L=60.00n
MM14 net117 cn pm VNW P12LL W=450.00n L=60.00n
MM13 VDD m net117 VNW P12LL W=450.00n L=60.00n
MM10 pm c net128 VNW P12LL W=350.00n L=60.00n
MM8 net128 D VDD VNW P12LL W=350.00n L=60.00n
MM1 m pm VDD VNW P12LL W=540.00n L=60.00n
.ENDS DGRNQHSV2
****Sub-Circuit for DGRNQHSV4, Wed Dec  8 11:21:15 CST 2010****
.SUBCKT DGRNQHSV4 CK D Q RN VDD VSS
MM3 m c net43 VPW N12LL W=360.00n L=60.00n
MM30 c cn VSS VPW N12LL W=340.00n L=60.00n
MM27 cn CK VSS VPW N12LL W=340.00n L=60.00n
MM38 net_0162 RN VSS VPW N12LL W=270.00n L=60.00n
MM24 net48 cn net43 VPW N12LL W=200.00n L=60.00n
MM23 VSS s net48 VPW N12LL W=200.00n L=60.00n
MM19 Q s VSS VPW N12LL W=860.00n L=60.00n
MM17 s net43 VSS VPW N12LL W=340.00n L=60.00n
MM12 net52 c pm VPW N12LL W=300.00n L=60.00n
MM11 VSS m net52 VPW N12LL W=300.00n L=60.00n
MM9 pm cn net69 VPW N12LL W=270.00n L=60.00n
MM7 net69 D net_0162 VPW N12LL W=270.00n L=60.00n
MM0 m pm VSS VPW N12LL W=360.00n L=60.00n
MM4 m cn net43 VNW P12LL W=540.00n L=60.00n
MM29 c cn VDD VNW P12LL W=500.0n L=60.00n
MM28 cn CK VDD VNW P12LL W=500.0n L=60.00n
MM37 net128 RN VDD VNW P12LL W=300.00n L=60.00n
MM26 VDD s net109 VNW P12LL W=300.00n L=60.00n
MM25 net109 c net43 VNW P12LL W=300.00n L=60.00n
MM20 Q s VDD VNW P12LL W=1.3u L=60.00n
MM18 s net43 VDD VNW P12LL W=500.00n L=60.00n
MM14 net117 cn pm VNW P12LL W=450.00n L=60.00n
MM13 VDD m net117 VNW P12LL W=450.00n L=60.00n
MM10 pm c net128 VNW P12LL W=350.00n L=60.00n
MM8 net128 D VDD VNW P12LL W=350.00n L=60.00n
MM1 m pm VDD VNW P12LL W=540.00n L=60.00n
.ENDS DGRNQHSV4
****Sub-Circuit for DGRSNHSV1, Wed Dec  8 11:21:15 CST 2010****
.SUBCKT DGRSNHSV1 CK D Q QN RN SN VDD VSS
MM43 snn SN VSS VPW N12LL W=300.00n L=60.00n
MM39 QN net073 VSS VPW N12LL W=290.00n L=60.00n
MM3 net049 c net073 VPW N12LL W=340.00n L=60.00n
MM42 net69 snn net_0162 VPW N12LL W=250.00n L=60.00n
MM30 c cn VSS VPW N12LL W=300.00n L=60.00n
MM27 cn CK VSS VPW N12LL W=300.00n L=60.00n
MM38 net_0162 RN VSS VPW N12LL W=250.00n L=60.00n
MM24 net48 cn net073 VPW N12LL W=200.00n L=60.00n
MM23 VSS net063 net48 VPW N12LL W=200.00n L=60.00n
MM19 Q net063 VSS VPW N12LL W=290.00n L=60.00n
MM17 net063 net073 VSS VPW N12LL W=260.00n L=60.00n
MM12 net52 c net051 VPW N12LL W=200.00n L=60.00n
MM11 VSS net049 net52 VPW N12LL W=200.00n L=60.00n
MM9 net051 cn net69 VPW N12LL W=250.00n L=60.00n
MM7 net69 D net_0162 VPW N12LL W=250.00n L=60.00n
MM0 net049 net051 VSS VPW N12LL W=340.00n L=60.00n
MM44 snn SN VDD VNW P12LL W=450.00n L=60.00n
MM41 net_0231 snn VDD VNW P12LL W=380.00n L=60.00n
MM40 QN net073 VDD VNW P12LL W=440.00n L=60.00n
MM4 net049 cn net073 VNW P12LL W=500.00n L=60.00n
MM29 c cn VDD VNW P12LL W=450.00n L=60.00n
MM28 cn CK VDD VNW P12LL W=450.00n L=60.00n
MM37 net128 RN VDD VNW P12LL W=300.00n L=60.00n
MM26 VDD net063 net109 VNW P12LL W=300.00n L=60.00n
MM25 net109 c net073 VNW P12LL W=300.00n L=60.00n
MM20 Q net063 VDD VNW P12LL W=440.00n L=60.00n
MM18 net063 net073 VDD VNW P12LL W=390.00n L=60.00n
MM14 net117 cn net051 VNW P12LL W=300.00n L=60.00n
MM13 VDD net049 net117 VNW P12LL W=300.00n L=60.00n
MM10 net051 c net128 VNW P12LL W=380.00n L=60.00n
MM8 net128 D net_0231 VNW P12LL W=380.00n L=60.00n
MM1 net049 net051 VDD VNW P12LL W=500.00n L=60.00n
.ENDS DGRSNHSV1
****Sub-Circuit for DGRSNHSV2, Wed Dec  8 11:21:15 CST 2010****
.SUBCKT DGRSNHSV2 CK D Q QN RN SN VDD VSS
MM43 snn SN VSS VPW N12LL W=300.00n L=60.00n
MM39 QN net073 VSS VPW N12LL W=430.00n L=60.00n
MM3 net049 c net073 VPW N12LL W=360.00n L=60.00n
MM42 net69 snn net_0162 VPW N12LL W=340.00n L=60.00n
MM30 c cn VSS VPW N12LL W=340.00n L=60.00n
MM27 cn CK VSS VPW N12LL W=430.00n L=60.00n
MM38 net_0162 RN VSS VPW N12LL W=340.00n L=60.00n
MM24 net48 cn net073 VPW N12LL W=200.00n L=60.00n
MM23 VSS net063 net48 VPW N12LL W=200.00n L=60.00n
MM19 Q net063 VSS VPW N12LL W=430.00n L=60.00n
MM17 net063 net073 VSS VPW N12LL W=300.00n L=60.00n
MM12 net52 c net051 VPW N12LL W=200.00n L=60.00n
MM11 VSS net049 net52 VPW N12LL W=200.00n L=60.00n
MM9 net051 cn net69 VPW N12LL W=340.00n L=60.00n
MM7 net69 D net_0162 VPW N12LL W=340.00n L=60.00n
MM0 net049 net051 VSS VPW N12LL W=360.00n L=60.00n
MM44 snn SN VDD VNW P12LL W=450.00n L=60.00n
MM41 net_0231 snn VDD VNW P12LL W=510.00n L=60.00n
MM40 QN net073 VDD VNW P12LL W=650.00n L=60.00n
MM4 net049 cn net073 VNW P12LL W=510.00n L=60.00n
MM29 c cn VDD VNW P12LL W=500.00n L=60.00n
MM28 cn CK VDD VNW P12LL W=650.00n L=60.00n
MM37 net128 RN VDD VNW P12LL W=300.00n L=60.00n
MM26 VDD net063 net109 VNW P12LL W=300.00n L=60.00n
MM25 net109 c net073 VNW P12LL W=300.00n L=60.00n
MM20 Q net063 VDD VNW P12LL W=650.00n L=60.00n
MM18 net063 net073 VDD VNW P12LL W=450.00n L=60.00n
MM14 net117 cn net051 VNW P12LL W=300.00n L=60.00n
MM13 VDD net049 net117 VNW P12LL W=300.00n L=60.00n
MM10 net051 c net128 VNW P12LL W=510.00n L=60.00n
MM8 net128 D net_0231 VNW P12LL W=510.00n L=60.00n
MM1 net049 net051 VDD VNW P12LL W=510.00n L=60.00n
.ENDS DGRSNHSV2
****Sub-Circuit for DGRSNHSV4, Wed Dec  8 11:21:15 CST 2010****
.SUBCKT DGRSNHSV4 CK D Q QN RN SN VDD VSS
MM43 snn SN VSS VPW N12LL W=300.00n L=60.00n
MM39 QN net073 VSS VPW N12LL W=860.00n L=60.00n
MM3 net049 c net073 VPW N12LL W=360.00n L=60.00n
MM42 net69 snn net_0162 VPW N12LL W=340.00n L=60.00n
MM30 c cn VSS VPW N12LL W=340.00n L=60.00n
MM27 cn CK VSS VPW N12LL W=430.00n L=60.00n
MM38 net_0162 RN VSS VPW N12LL W=340.00n L=60.00n
MM24 net48 cn net073 VPW N12LL W=200.00n L=60.00n
MM23 VSS net063 net48 VPW N12LL W=200.00n L=60.00n
MM19 Q net063 VSS VPW N12LL W=860.00n L=60.00n
MM17 net063 net073 VSS VPW N12LL W=360.00n L=60.00n
MM12 net52 c net051 VPW N12LL W=200.00n L=60.00n
MM11 VSS net049 net52 VPW N12LL W=200.00n L=60.00n
MM9 net051 cn net69 VPW N12LL W=340.00n L=60.00n
MM7 net69 D net_0162 VPW N12LL W=340.00n L=60.00n
MM0 net049 net051 VSS VPW N12LL W=360.00n L=60.00n
MM44 snn SN VDD VNW P12LL W=450.00n L=60.00n
MM41 net_0231 snn VDD VNW P12LL W=510.00n L=60.00n
MM40 QN net073 VDD VNW P12LL W=1.3u L=60.00n
MM4 net049 cn net073 VNW P12LL W=510.00n L=60.00n
MM29 c cn VDD VNW P12LL W=500.00n L=60.00n
MM28 cn CK VDD VNW P12LL W=650.00n L=60.00n
MM37 net128 RN VDD VNW P12LL W=300.00n L=60.00n
MM26 VDD net063 net109 VNW P12LL W=300.00n L=60.00n
MM25 net109 c net073 VNW P12LL W=300.00n L=60.00n
MM20 Q net063 VDD VNW P12LL W=1.3u L=60.00n
MM18 net063 net073 VDD VNW P12LL W=540.00n L=60.00n
MM14 net117 cn net051 VNW P12LL W=300.00n L=60.00n
MM13 VDD net049 net117 VNW P12LL W=300.00n L=60.00n
MM10 net051 c net128 VNW P12LL W=510.00n L=60.00n
MM8 net128 D net_0231 VNW P12LL W=510.00n L=60.00n
MM1 net049 net051 VDD VNW P12LL W=510.00n L=60.00n
.ENDS DGRSNHSV4
****Sub-Circuit for DGSNHSV1, Wed Dec  8 11:21:15 CST 2010****
.SUBCKT DGSNHSV1 CK D Q QN SN VDD VSS
MM39 QN net073 VSS VPW N12LL W=290.00n L=60.00n
MM43 snn SN VSS VPW N12LL W=200.00n L=60.00n
MM3 net049 c net073 VPW N12LL W=270.00n L=60.00n
MM42 net69 snn VSS VPW N12LL W=200.00n L=60.00n
MM30 c cn VSS VPW N12LL W=290.00n L=60.00n
MM27 cn CK VSS VPW N12LL W=200.00n L=60.00n
MM24 net48 cn net073 VPW N12LL W=200.00n L=60.00n
MM23 VSS net063 net48 VPW N12LL W=200.00n L=60.00n
MM19 Q net063 VSS VPW N12LL W=290.00n L=60.00n
MM17 net063 net073 VSS VPW N12LL W=240.00n L=60.00n
MM12 net52 c net051 VPW N12LL W=200.00n L=60.00n
MM11 VSS net049 net52 VPW N12LL W=200.00n L=60.00n
MM9 net051 cn net69 VPW N12LL W=250.00n L=60.00n
MM7 net69 D VSS VPW N12LL W=250.00n L=60.00n
MM0 net049 net051 VSS VPW N12LL W=270.00n L=60.00n
MM41 net_0231 snn VDD VNW P12LL W=440.00n L=60.00n
MM40 QN net073 VDD VNW P12LL W=440.00n L=60.00n
MM44 snn SN VDD VNW P12LL W=300.00n L=60.00n
MM4 net049 cn net073 VNW P12LL W=400.00n L=60.00n
MM29 c cn VDD VNW P12LL W=440.00n L=60.00n
MM28 cn CK VDD VNW P12LL W=300.00n L=60.00n
MM26 VDD net063 net109 VNW P12LL W=300.00n L=60.00n
MM25 net109 c net073 VNW P12LL W=300.00n L=60.00n
MM20 Q net063 VDD VNW P12LL W=440.00n L=60.00n
MM18 net063 net073 VDD VNW P12LL W=360.00n L=60.00n
MM14 net117 cn net051 VNW P12LL W=300.00n L=60.00n
MM13 VDD net049 net117 VNW P12LL W=300.00n L=60.00n
MM10 net051 c net128 VNW P12LL W=440.00n L=60.00n
MM8 net128 D net_0231 VNW P12LL W=440.00n L=60.00n
MM1 net049 net051 VDD VNW P12LL W=400.00n L=60.00n
.ENDS DGSNHSV1
****Sub-Circuit for DGSNHSV2, Wed Dec  8 11:21:15 CST 2010****
.SUBCKT DGSNHSV2 CK D Q QN SN VDD VSS
MM39 QN net073 VSS VPW N12LL W=430.00n L=60.00n
MM43 snn SN VSS VPW N12LL W=200.00n L=60.00n
MM3 net049 c net073 VPW N12LL W=350.00n L=60.00n
MM42 net69 snn VSS VPW N12LL W=200.00n L=60.00n
MM30 c cn VSS VPW N12LL W=380.00n L=60.00n
MM27 cn CK VSS VPW N12LL W=290.00n L=60.00n
MM24 net48 cn net073 VPW N12LL W=200.00n L=60.00n
MM23 VSS net063 net48 VPW N12LL W=200.00n L=60.00n
MM19 Q net063 VSS VPW N12LL W=430.00n L=60.00n
MM17 net063 net073 VSS VPW N12LL W=290.00n L=60.00n
MM12 net52 c net051 VPW N12LL W=200.00n L=60.00n
MM11 VSS net049 net52 VPW N12LL W=200.00n L=60.00n
MM9 net051 cn net69 VPW N12LL W=260.00n L=60.00n
MM7 net69 D VSS VPW N12LL W=260.00n L=60.00n
MM0 net049 net051 VSS VPW N12LL W=350.00n L=60.00n
MM41 net_0231 snn VDD VNW P12LL W=510.00n L=60.00n
MM40 QN net073 VDD VNW P12LL W=650.00n L=60.00n
MM44 snn SN VDD VNW P12LL W=300.00n L=60.00n
MM4 net049 cn net073 VNW P12LL W=510.00n L=60.00n
MM29 c cn VDD VNW P12LL W=570.00n L=60.00n
MM28 cn CK VDD VNW P12LL W=440.00n L=60.00n
MM26 VDD net063 net109 VNW P12LL W=300.00n L=60.00n
MM25 net109 c net073 VNW P12LL W=300.00n L=60.00n
MM20 Q net063 VDD VNW P12LL W=650.00n L=60.00n
MM18 net063 net073 VDD VNW P12LL W=440.00n L=60.00n
MM14 net117 cn net051 VNW P12LL W=300.00n L=60.00n
MM13 VDD net049 net117 VNW P12LL W=300.00n L=60.00n
MM10 net051 c net128 VNW P12LL W=510.00n L=60.00n
MM8 net128 D net_0231 VNW P12LL W=510.00n L=60.00n
MM1 net049 net051 VDD VNW P12LL W=510.00n L=60.00n
.ENDS DGSNHSV2
****Sub-Circuit for DGSNHSV4, Wed Dec  8 11:21:15 CST 2010****
.SUBCKT DGSNHSV4 CK D Q QN SN VDD VSS
MM39 QN net073 VSS VPW N12LL W=860.00n L=60.00n
MM43 snn SN VSS VPW N12LL W=200.00n L=60.00n
MM3 net049 c net073 VPW N12LL W=340.00n L=60.00n
MM42 net69 snn VSS VPW N12LL W=250.00n L=60.00n
MM30 c cn VSS VPW N12LL W=430.00n L=60.00n
MM27 cn CK VSS VPW N12LL W=430.00n L=60.00n
MM24 net48 cn net073 VPW N12LL W=200.00n L=60.00n
MM23 VSS net063 net48 VPW N12LL W=200.00n L=60.00n
MM19 Q net063 VSS VPW N12LL W=860.00n L=60.00n
MM17 net063 net073 VSS VPW N12LL W=430.00n L=60.00n
MM12 net52 c net051 VPW N12LL W=200.00n L=60.00n
MM11 VSS net049 net52 VPW N12LL W=200.00n L=60.00n
MM9 net051 cn net69 VPW N12LL W=270.00n L=60.00n
MM7 net69 D VSS VPW N12LL W=270.00n L=60.00n
MM0 net049 net051 VSS VPW N12LL W=340.00n L=60.00n
MM41 net_0231 snn VDD VNW P12LL W=510.00n L=60.00n
MM40 QN net073 VDD VNW P12LL W=1.3u L=60.00n
MM44 snn SN VDD VNW P12LL W=300.00n L=60.00n
MM4 net049 cn net073 VNW P12LL W=510.00n L=60.00n
MM29 c cn VDD VNW P12LL W=650.00n L=60.00n
MM28 cn CK VDD VNW P12LL W=650.00n L=60.00n
MM26 VDD net063 net109 VNW P12LL W=300.00n L=60.00n
MM25 net109 c net073 VNW P12LL W=300.00n L=60.00n
MM20 Q net063 VDD VNW P12LL W=1.3u L=60.00n
MM18 net063 net073 VDD VNW P12LL W=490.00n L=60.00n
MM14 net117 cn net051 VNW P12LL W=300.00n L=60.00n
MM13 VDD net049 net117 VNW P12LL W=300.00n L=60.00n
MM10 net051 c net128 VNW P12LL W=510.00n L=60.00n
MM8 net128 D net_0231 VNW P12LL W=510.00n L=60.00n
MM1 net049 net051 VDD VNW P12LL W=510.00n L=60.00n
.ENDS DGSNHSV4
****Sub-Circuit for DHSV1, Wed Dec  8 11:21:15 CST 2010****
.SUBCKT DHSV1 CK D Q QN VDD VSS
MM42 QN s VSS VPW N12LL W=290.00n L=60.00n
MM39 net43 c net_099 VPW N12LL W=290.00n L=60.00n
MM40 net_099 m VSS VPW N12LL W=290.00n L=60.00n
MM30 c cn VSS VPW N12LL W=290.00n L=60.00n
MM27 cn CK VSS VPW N12LL W=200.00n L=60.00n
MM24 net48 cn net43 VPW N12LL W=200.00n L=60.00n
MM23 VSS s net48 VPW N12LL W=200.00n L=60.00n
MM19 Q net43 VSS VPW N12LL W=290.00n L=60.00n
MM17 s net43 VSS VPW N12LL W=200.00n L=60.00n
MM12 net52 c pm VPW N12LL W=200.00n L=60.00n
MM11 VSS m net52 VPW N12LL W=200.00n L=60.00n
MM9 pm cn net69 VPW N12LL W=200.00n L=60.00n
MM7 net69 D VSS VPW N12LL W=200.00n L=60.00n
MM0 m pm VSS VPW N12LL W=290.00n L=60.00n
MM43 QN s VDD VNW P12LL W=440.00n L=60.00n
MM38 net43 cn net_0158 VNW P12LL W=440.00n L=60.00n
MM41 net_0158 m VDD VNW P12LL W=440.00n L=60.00n
MM29 c cn VDD VNW P12LL W=440.00n L=60.00n
MM28 cn CK VDD VNW P12LL W=300.00n L=60.00n
MM26 VDD s net109 VNW P12LL W=300.00n L=60.00n
MM25 net109 c net43 VNW P12LL W=300.00n L=60.00n
MM20 Q net43 VDD VNW P12LL W=440.00n L=60.00n
MM18 s net43 VDD VNW P12LL W=300.00n L=60.00n
MM14 net117 cn pm VNW P12LL W=300.00n L=60.00n
MM13 VDD m net117 VNW P12LL W=300.00n L=60.00n
MM10 pm c net128 VNW P12LL W=300.00n L=60.00n
MM8 net128 D VDD VNW P12LL W=300.00n L=60.00n
MM1 m pm VDD VNW P12LL W=440.00n L=60.00n
.ENDS DHSV1
****Sub-Circuit for DHSV2, Wed Dec  8 11:21:15 CST 2010****
.SUBCKT DHSV2 CK D Q QN VDD VSS
MM42 QN s VSS VPW N12LL W=430.00n L=60.00n
MM39 net43 c net_099 VPW N12LL W=430.00n L=60.00n
MM40 net_099 m VSS VPW N12LL W=430.00n L=60.00n
MM30 c cn VSS VPW N12LL W=430.00n L=60.00n
MM27 cn CK VSS VPW N12LL W=200.00n L=60.00n
MM24 net48 cn net43 VPW N12LL W=200.00n L=60.00n
MM23 VSS s net48 VPW N12LL W=200.00n L=60.00n
MM19 Q net43 VSS VPW N12LL W=430.00n L=60.00n
MM17 s net43 VSS VPW N12LL W=290.00n L=60.00n
MM12 net52 c pm VPW N12LL W=200.00n L=60.00n
MM11 VSS m net52 VPW N12LL W=200.00n L=60.00n
MM9 pm cn net69 VPW N12LL W=200.00n L=60.00n
MM7 net69 D VSS VPW N12LL W=200.00n L=60.00n
MM0 m pm VSS VPW N12LL W=290.00n L=60.00n
MM43 QN s VDD VNW P12LL W=650.00n L=60.00n
MM38 net43 cn net_0158 VNW P12LL W=640.00n L=60.00n
MM41 net_0158 m VDD VNW P12LL W=640.00n L=60.00n
MM29 c cn VDD VNW P12LL W=650.00n L=60.00n
MM28 cn CK VDD VNW P12LL W=300.00n L=60.00n
MM26 VDD s net109 VNW P12LL W=300.00n L=60.00n
MM25 net109 c net43 VNW P12LL W=300.00n L=60.00n
MM20 Q net43 VDD VNW P12LL W=650.00n L=60.00n
MM18 s net43 VDD VNW P12LL W=440.00n L=60.00n
MM14 net117 cn pm VNW P12LL W=300.00n L=60.00n
MM13 VDD m net117 VNW P12LL W=300.00n L=60.00n
MM10 pm c net128 VNW P12LL W=300.00n L=60.00n
MM8 net128 D VDD VNW P12LL W=300.00n L=60.00n
MM1 m pm VDD VNW P12LL W=440.00n L=60.00n
.ENDS DHSV2
****Sub-Circuit for DHSV4, Wed Dec  8 11:21:15 CST 2010****
.SUBCKT DHSV4 CK D Q QN VDD VSS
MM42 QN s VSS VPW N12LL W=430.00n L=60.00n m=2
MM39 net43 c net_099 VPW N12LL W=300.00n L=60.00n m=2
MM40 net_099 m VSS VPW N12LL W=300.00n L=60.00n m=2
MM30 c cn VSS VPW N12LL W=430.00n L=60.00n
MM27 cn CK VSS VPW N12LL W=290.00n L=60.00n
MM24 net48 cn net43 VPW N12LL W=200.00n L=60.00n
MM23 VSS s net48 VPW N12LL W=200.00n L=60.00n
MM19 Q net43 VSS VPW N12LL W=430.00n L=60.00n m=2
MM17 s net43 VSS VPW N12LL W=430.00n L=60.00n
MM12 net52 c pm VPW N12LL W=200.00n L=60.00n
MM11 VSS m net52 VPW N12LL W=200.00n L=60.00n
MM9 pm cn net69 VPW N12LL W=200.00n L=60.00n
MM7 net69 D VSS VPW N12LL W=200.00n L=60.00n
MM0 m pm VSS VPW N12LL W=290.00n L=60.00n
MM43 QN s VDD VNW P12LL W=650.00n L=60.00n m=2
MM38 net43 cn net_0158 VNW P12LL W=450.00n L=60.00n m=2
MM41 net_0158 m VDD VNW P12LL W=450.00n L=60.00n m=2
MM29 c cn VDD VNW P12LL W=650.00n L=60.00n
MM28 cn CK VDD VNW P12LL W=440.00n L=60.00n
MM26 VDD s net109 VNW P12LL W=300.00n L=60.00n
MM25 net109 c net43 VNW P12LL W=300.00n L=60.00n
MM20 Q net43 VDD VNW P12LL W=650.00n L=60.00n m=2
MM18 s net43 VDD VNW P12LL W=650.00n L=60.00n
MM14 net117 cn pm VNW P12LL W=300.00n L=60.00n
MM13 VDD m net117 VNW P12LL W=300.00n L=60.00n
MM10 pm c net128 VNW P12LL W=300.00n L=60.00n
MM8 net128 D VDD VNW P12LL W=300.00n L=60.00n
MM1 m pm VDD VNW P12LL W=440.00n L=60.00n
.ENDS DHSV4
****Sub-Circuit for DQHSV1, Wed Dec  8 11:21:15 CST 2010****
.SUBCKT DQHSV1 CK D Q VDD VSS
MM39 net43 c net_099 VPW N12LL W=290.00n L=60.00n
MM40 net_099 m VSS VPW N12LL W=290.00n L=60.00n
MM30 c cn VSS VPW N12LL W=290.00n L=60.00n
MM27 cn CK VSS VPW N12LL W=200.00n L=60.00n
MM24 net48 cn net43 VPW N12LL W=200.00n L=60.00n
MM23 VSS s net48 VPW N12LL W=200.00n L=60.00n
MM19 Q net43 VSS VPW N12LL W=290.00n L=60.00n
MM17 s net43 VSS VPW N12LL W=200.00n L=60.00n
MM12 net52 c pm VPW N12LL W=200.00n L=60.00n
MM11 VSS m net52 VPW N12LL W=200.00n L=60.00n
MM9 pm cn net69 VPW N12LL W=200.00n L=60.00n
MM7 net69 D VSS VPW N12LL W=200.00n L=60.00n
MM0 m pm VSS VPW N12LL W=200.00n L=60.00n
MM38 net43 cn net_0158 VNW P12LL W=440.00n L=60.00n
MM41 net_0158 m VDD VNW P12LL W=440.00n L=60.00n
MM29 c cn VDD VNW P12LL W=440.00n L=60.00n
MM28 cn CK VDD VNW P12LL W=300.00n L=60.00n
MM26 VDD s net109 VNW P12LL W=300.00n L=60.00n
MM25 net109 c net43 VNW P12LL W=300.00n L=60.00n
MM20 Q net43 VDD VNW P12LL W=440.00n L=60.00n
MM18 s net43 VDD VNW P12LL W=300.00n L=60.00n
MM14 net117 cn pm VNW P12LL W=300.00n L=60.00n
MM13 VDD m net117 VNW P12LL W=300.00n L=60.00n
MM10 pm c net128 VNW P12LL W=300.00n L=60.00n
MM8 net128 D VDD VNW P12LL W=300.00n L=60.00n
MM1 m pm VDD VNW P12LL W=300.00n L=60.00n
.ENDS DQHSV1
****Sub-Circuit for DQHSV2, Wed Dec  8 11:21:15 CST 2010****
.SUBCKT DQHSV2 CK D Q VDD VSS
MM39 net43 c net_099 VPW N12LL W=430.00n L=60.00n
MM40 net_099 m VSS VPW N12LL W=430.00n L=60.00n
MM30 c cn VSS VPW N12LL W=430.00n L=60.00n
MM27 cn CK VSS VPW N12LL W=290.00n L=60.00n
MM24 net48 cn net43 VPW N12LL W=200.00n L=60.00n
MM23 VSS s net48 VPW N12LL W=200.00n L=60.00n
MM19 Q net43 VSS VPW N12LL W=430.00n L=60.00n
MM17 s net43 VSS VPW N12LL W=200.00n L=60.00n
MM12 net52 c pm VPW N12LL W=290.00n L=60.00n
MM11 VSS m net52 VPW N12LL W=290.00n L=60.00n
MM9 pm cn net69 VPW N12LL W=290.00n L=60.00n
MM7 net69 D VSS VPW N12LL W=290.00n L=60.00n
MM0 m pm VSS VPW N12LL W=290.00n L=60.00n
MM38 net43 cn net_0158 VNW P12LL W=650.00n L=60.00n
MM41 net_0158 m VDD VNW P12LL W=650.00n L=60.00n
MM29 c cn VDD VNW P12LL W=650.00n L=60.00n
MM28 cn CK VDD VNW P12LL W=440.00n L=60.00n
MM26 VDD s net109 VNW P12LL W=300.00n L=60.00n
MM25 net109 c net43 VNW P12LL W=300.00n L=60.00n
MM20 Q net43 VDD VNW P12LL W=650.00n L=60.00n
MM18 s net43 VDD VNW P12LL W=300.00n L=60.00n
MM14 net117 cn pm VNW P12LL W=440.00n L=60.00n
MM13 VDD m net117 VNW P12LL W=440.00n L=60.00n
MM10 pm c net128 VNW P12LL W=440.00n L=60.00n
MM8 net128 D VDD VNW P12LL W=440.00n L=60.00n
MM1 m pm VDD VNW P12LL W=440.00n L=60.00n
.ENDS DQHSV2
****Sub-Circuit for DQHSV4, Wed Dec  8 11:21:15 CST 2010****
.SUBCKT DQHSV4 CK D Q VDD VSS
MM39 net43 c net_099 VPW N12LL W=600.0n L=60.00n
MM40 net_099 m VSS VPW N12LL W=600.0n L=60.00n
MM30 c cn VSS VPW N12LL W=430.00n L=60.00n
MM27 cn CK VSS VPW N12LL W=290.00n L=60.00n
MM24 net48 cn net43 VPW N12LL W=200.00n L=60.00n
MM23 VSS s net48 VPW N12LL W=200.00n L=60.00n
MM19 Q net43 VSS VPW N12LL W=860.00n L=60.00n
MM17 s net43 VSS VPW N12LL W=200.00n L=60.00n
MM12 net52 c pm VPW N12LL W=290.00n L=60.00n
MM11 VSS m net52 VPW N12LL W=290.00n L=60.00n
MM9 pm cn net69 VPW N12LL W=290.00n L=60.00n
MM7 net69 D VSS VPW N12LL W=290.00n L=60.00n
MM0 m pm VSS VPW N12LL W=290.00n L=60.00n
MM38 net43 cn net_0158 VNW P12LL W=910.00n L=60.00n
MM41 net_0158 m VDD VNW P12LL W=910.00n L=60.00n
MM29 c cn VDD VNW P12LL W=650.00n L=60.00n
MM28 cn CK VDD VNW P12LL W=440.00n L=60.00n
MM26 VDD s net109 VNW P12LL W=300.00n L=60.00n
MM25 net109 c net43 VNW P12LL W=300.00n L=60.00n
MM20 Q net43 VDD VNW P12LL W=1.3u L=60.00n
MM18 s net43 VDD VNW P12LL W=300.00n L=60.00n
MM14 net117 cn pm VNW P12LL W=440.00n L=60.00n
MM13 VDD m net117 VNW P12LL W=440.00n L=60.00n
MM10 pm c net128 VNW P12LL W=440.00n L=60.00n
MM8 net128 D VDD VNW P12LL W=440.00n L=60.00n
MM1 m pm VDD VNW P12LL W=440.00n L=60.00n
.ENDS DQHSV4
****Sub-Circuit for DRNHSV1, Wed Dec  8 11:21:15 CST 2010****
.SUBCKT DRNHSV1 CK D Q QN RDN VDD VSS
MM45 QN net43 VSS VPW N12LL W=290.00n L=60.00n
MM3 net_0154 c net43 VPW N12LL W=290.00n L=60.00n
MM44 net_0104 RDN VSS VPW N12LL W=290.00n L=60.00n
MM42 VSS RDN net_0119 VPW N12LL W=200.00n L=60.00n
MM39 s net43 net_099 VPW N12LL W=290.00n L=60.00n
MM40 net_099 RDN VSS VPW N12LL W=290.00n L=60.00n
MM30 c cn VSS VPW N12LL W=200.00n L=60.00n
MM27 cn CK VSS VPW N12LL W=200.00n L=60.00n
MM24 net48 cn net43 VPW N12LL W=200.00n L=60.00n
MM23 VSS s net48 VPW N12LL W=200.00n L=60.00n
MM19 Q s VSS VPW N12LL W=290.00n L=60.00n
MM12 net52 c pm VPW N12LL W=200.00n L=60.00n
MM11 net_0119 net_0154 net52 VPW N12LL W=200.00n L=60.00n
MM9 pm cn net69 VPW N12LL W=290.00n L=60.00n
MM7 net69 D net_0104 VPW N12LL W=290.00n L=60.00n
MM0 net_0154 pm VSS VPW N12LL W=290.00n L=60.00n
MM46 QN net43 VDD VNW P12LL W=440.00n L=60.00n
MM43 pm RDN VDD VNW P12LL W=300.00n L=60.00n
MM38 s net43 VDD VNW P12LL W=300.00n L=60.00n
MM41 s RDN VDD VNW P12LL W=300.00n L=60.00n
MM29 c cn VDD VNW P12LL W=300.00n L=60.00n
MM28 cn CK VDD VNW P12LL W=300.00n L=60.00n
MM26 VDD s net109 VNW P12LL W=300.00n L=60.00n
MM25 net109 c net43 VNW P12LL W=300.00n L=60.00n
MM20 Q s VDD VNW P12LL W=440.00n L=60.00n
MM4 net_0154 cn net43 VNW P12LL W=440.00n L=60.00n
MM14 net117 cn pm VNW P12LL W=300.00n L=60.00n
MM13 VDD net_0154 net117 VNW P12LL W=300.00n L=60.00n
MM10 pm c net128 VNW P12LL W=300.00n L=60.00n
MM8 net128 D VDD VNW P12LL W=300.00n L=60.00n
MM1 net_0154 pm VDD VNW P12LL W=440.00n L=60.00n
.ENDS DRNHSV1
****Sub-Circuit for DRNHSV2, Wed Dec  8 11:21:15 CST 2010****
.SUBCKT DRNHSV2 CK D Q QN RDN VDD VSS
MM45 QN net43 VSS VPW N12LL W=430.00n L=60.00n
MM3 net_0154 c net43 VPW N12LL W=340.00n L=60.00n
MM44 net_0104 RDN VSS VPW N12LL W=320.00n L=60.00n
MM42 VSS RDN net_0119 VPW N12LL W=200.00n L=60.00n
MM39 s net43 net_099 VPW N12LL W=390.00n L=60.00n
MM40 net_099 RDN VSS VPW N12LL W=390.00n L=60.00n
MM30 c cn VSS VPW N12LL W=200.00n L=60.00n
MM27 cn CK VSS VPW N12LL W=200.00n L=60.00n
MM24 net48 cn net43 VPW N12LL W=200.00n L=60.00n
MM23 VSS s net48 VPW N12LL W=200.00n L=60.00n
MM19 Q s VSS VPW N12LL W=430.00n L=60.00n
MM12 net52 c pm VPW N12LL W=200.00n L=60.00n
MM11 net_0119 net_0154 net52 VPW N12LL W=200.00n L=60.00n
MM9 pm cn net69 VPW N12LL W=320.00n L=60.00n
MM7 net69 D net_0104 VPW N12LL W=320.00n L=60.00n
MM0 net_0154 pm VSS VPW N12LL W=340.00n L=60.00n
MM46 QN net43 VDD VNW P12LL W=650.00n L=60.00n
MM43 pm RDN VDD VNW P12LL W=300.00n L=60.00n
MM38 s net43 VDD VNW P12LL W=400.00n L=60.00n
MM41 s RDN VDD VNW P12LL W=300.00n L=60.00n
MM29 c cn VDD VNW P12LL W=300.00n L=60.00n
MM28 cn CK VDD VNW P12LL W=300.00n L=60.00n
MM26 VDD s net109 VNW P12LL W=300.00n L=60.00n
MM25 net109 c net43 VNW P12LL W=300.00n L=60.00n
MM20 Q s VDD VNW P12LL W=650.00n L=60.00n
MM4 net_0154 cn net43 VNW P12LL W=530.00n L=60.00n
MM14 net117 cn pm VNW P12LL W=300.00n L=60.00n
MM13 VDD net_0154 net117 VNW P12LL W=300.00n L=60.00n
MM10 pm c net128 VNW P12LL W=300.00n L=60.00n
MM8 net128 D VDD VNW P12LL W=300.00n L=60.00n
MM1 net_0154 pm VDD VNW P12LL W=530.00n L=60.00n
.ENDS DRNHSV2
****Sub-Circuit for DRNHSV4, Wed Dec  8 11:21:15 CST 2010****
.SUBCKT DRNHSV4 CK D Q QN RDN VDD VSS
MM45 QN net43 VSS VPW N12LL W=430.00n L=60.00n m=2
MM3 net_0154 c net43 VPW N12LL W=340.00n L=60.00n
MM44 net_0104 RDN VSS VPW N12LL W=430.00n L=60.00n
MM42 VSS RDN net_0119 VPW N12LL W=200.00n L=60.00n
MM39 s net43 net_099 VPW N12LL W=330.00n L=60.00n m=2
MM40 net_099 RDN VSS VPW N12LL W=330.00n L=60.00n m=2
MM30 c cn VSS VPW N12LL W=430.00n L=60.00n
MM27 cn CK VSS VPW N12LL W=290.00n L=60.00n
MM24 net48 cn net43 VPW N12LL W=200.00n L=60.00n
MM23 VSS s net48 VPW N12LL W=200.00n L=60.00n
MM19 Q s VSS VPW N12LL W=430.00n L=60.00n m=2
MM12 net52 c pm VPW N12LL W=200.00n L=60.00n
MM11 net_0119 net_0154 net52 VPW N12LL W=200.00n L=60.00n
MM9 pm cn net69 VPW N12LL W=430.00n L=60.00n
MM7 net69 D net_0104 VPW N12LL W=430.00n L=60.00n
MM0 net_0154 pm VSS VPW N12LL W=340.00n L=60.00n