
****
.SUBCKT A2DFFQNX0P5MA10TR  VDD VSS VPW VNW QN   CK A B
MNA1 NCLK CK VSS VPW NCH W=0.15u L=0.06u
MNA1010 N1 NS VSS VPW NCH W=0.15u L=0.06u
MNA1016 N1_9 M VSS VPW NCH W=0.15u L=0.06u
MNA102 BCLK NCLK VSS VPW NCH W=0.15u L=0.06u
MNA1032 M NM VSS VPW NCH W=0.15u L=0.06u
MNA1036 QN S VSS VPW NCH W=0.28u L=0.06u
MNA1040 NIN A N1_13 VPW NCH W=0.3u L=0.06u
MNA106 NS S VSS VPW NCH W=0.15u L=0.06u
MNA2 N1_13 B VSS VPW NCH W=0.3u L=0.06u
MNOE S NCLK N1 VPW NCH W=0.15u L=0.06u
MNOE020 NM BCLK N1_9 VPW NCH W=0.15u L=0.06u
MNOE024 NM NCLK NIN VPW NCH W=0.15u L=0.06u
MNOE028 S BCLK M VPW NCH W=0.15u L=0.06u
MPA1 NCLK CK VDD VNW PCH W=0.2u L=0.06u
MPA1012 P1 NS VDD VNW PCH W=0.15u L=0.06u
MPA1018 P1_11 M VDD VNW PCH W=0.15u L=0.06u
MPA1034 M NM VDD VNW PCH W=0.25u L=0.06u
MPA1038 QN S VDD VNW PCH W=0.37u L=0.06u
MPA104 BCLK NCLK VDD VNW PCH W=0.2u L=0.06u
MPA1043 NIN A VDD VNW PCH W=0.2u L=0.06u
MPA108 NS S VDD VNW PCH W=0.15u L=0.06u
MPA2 NIN B VDD VNW PCH W=0.2u L=0.06u
MPOEN S BCLK P1 VNW PCH W=0.15u L=0.06u
MPOEN022 NM NCLK P1_11 VNW PCH W=0.15u L=0.06u
MPOEN026 NM BCLK NIN VNW PCH W=0.15u L=0.06u
MPOEN030 S NCLK M VNW PCH W=0.15u L=0.06u
.ENDS	A2DFFQNX0P5MA10TR

****
.SUBCKT A2DFFQNX1MA10TR  VDD VSS VPW VNW QN   CK A B
MNA1 NS S VSS VPW NCH W=0.15u L=0.06u
MNA102 N1 NS VSS VPW NCH W=0.15u L=0.06u
MNA1020 NCLK CK VSS VPW NCH W=0.17u L=0.06u
MNA1024 BCLK NCLK VSS VPW NCH W=0.15u L=0.06u
MNA1032 M NM VSS VPW NCH W=0.32u L=0.06u
MNA1036 QN S VSS VPW NCH W=0.53u L=0.06u
MNA1040 NIN A N1_13 VPW NCH W=0.45u L=0.06u
MNA108 N1_9 M VSS VPW NCH W=0.15u L=0.06u
MNA2 N1_13 B VSS VPW NCH W=0.45u L=0.06u
MNOE S NCLK N1 VPW NCH W=0.15u L=0.06u
MNOE012 NM BCLK N1_9 VPW NCH W=0.15u L=0.06u
MNOE016 NM NCLK NIN VPW NCH W=0.28u L=0.06u
MNOE028 S BCLK M VPW NCH W=0.28u L=0.06u
MPA1 NS S VDD VNW PCH W=0.15u L=0.06u
MPA1010 P1_11 M VDD VNW PCH W=0.15u L=0.06u
MPA1022 NCLK CK VDD VNW PCH W=0.22u L=0.06u
MPA1026 BCLK NCLK VDD VNW PCH W=0.3u L=0.06u
MPA1034 M NM VDD VNW PCH W=0.48u L=0.06u
MPA1038 QN S VDD VNW PCH W=0.7u L=0.06u
MPA104 P1 NS VDD VNW PCH W=0.15u L=0.06u
MPA1043 NIN A VDD VNW PCH W=0.3u L=0.06u
MPA2 NIN B VDD VNW PCH W=0.3u L=0.06u
MPOEN S BCLK P1 VNW PCH W=0.15u L=0.06u
MPOEN014 NM NCLK P1_11 VNW PCH W=0.15u L=0.06u
MPOEN018 NM BCLK NIN VNW PCH W=0.28u L=0.06u
MPOEN030 S NCLK M VNW PCH W=0.28u L=0.06u
.ENDS	A2DFFQNX1MA10TR

****
.SUBCKT A2DFFQNX2MA10TR  VDD VSS VPW VNW QN   CK A B
MNA1 NS S VSS VPW NCH W=0.15u L=0.06u
MNA102 N1 NS VSS VPW NCH W=0.15u L=0.06u
MNA1024 NCLK CK VSS VPW NCH W=0.21u L=0.06u
MNA1028 BCLK NCLK VSS VPW NCH W=0.18u L=0.06u
MNA1032 M NM VSS VPW NCH W=0.4u L=0.06u
MNA1036 QN S VSS VPW NCH W=1.06u L=0.06u
MNA1040 NIN A N1_13 VPW NCH W=0.58u L=0.06u
MNA108 N1_9 M VSS VPW NCH W=0.15u L=0.06u
MNA2 N1_13 B VSS VPW NCH W=0.58u L=0.06u
MNOE S NCLK N1 VPW NCH W=0.15u L=0.06u
MNOE012 NM BCLK N1_9 VPW NCH W=0.15u L=0.06u
MNOE016 NM NCLK NIN VPW NCH W=0.4u L=0.06u
MNOE020 S BCLK M VPW NCH W=0.4u L=0.06u
MPA1 NS S VDD VNW PCH W=0.15u L=0.06u
MPA1010 P1_11 M VDD VNW PCH W=0.15u L=0.06u
MPA1026 NCLK CK VDD VNW PCH W=0.26u L=0.06u
MPA1030 BCLK NCLK VDD VNW PCH W=0.36u L=0.06u
MPA1034 M NM VDD VNW PCH W=0.6u L=0.06u
MPA1038 QN S VDD VNW PCH W=1.4u L=0.06u
MPA104 P1 NS VDD VNW PCH W=0.15u L=0.06u
MPA1043 NIN A VDD VNW PCH W=0.4u L=0.06u
MPA2 NIN B VDD VNW PCH W=0.4u L=0.06u
MPOEN S BCLK P1 VNW PCH W=0.15u L=0.06u
MPOEN014 NM NCLK P1_11 VNW PCH W=0.15u L=0.06u
MPOEN018 NM BCLK NIN VNW PCH W=0.4u L=0.06u
MPOEN022 S NCLK M VNW PCH W=0.4u L=0.06u
.ENDS	A2DFFQNX2MA10TR

****
.SUBCKT A2DFFQNX3MA10TR  VDD VSS VPW VNW QN   CK A B
MNA1 N1 M VSS VPW NCH W=0.15u L=0.06u
MNA1016 NIN A N1_13 VPW NCH W=0.58u L=0.06u
MNA1022 QN S VSS VPW NCH W=1.68u L=0.06u
MNA1026 NS S VSS VPW NCH W=0.15u L=0.06u
MNA1030 BCLK NCLK VSS VPW NCH W=0.24u L=0.06u
MNA1034 NCLK CK VSS VPW NCH W=0.28u L=0.06u
MNA1038 M NM VSS VPW NCH W=0.58u L=0.06u
MNA108 N1_9 NS VSS VPW NCH W=0.15u L=0.06u
MNA2 N1_13 B VSS VPW NCH W=0.58u L=0.06u
MNOE S BCLK M VPW NCH W=0.58u L=0.06u
MNOE012 S NCLK N1_9 VPW NCH W=0.15u L=0.06u
MNOE04 NM BCLK N1 VPW NCH W=0.15u L=0.06u
MNOE042 NM NCLK NIN VPW NCH W=0.45u L=0.06u
MPA1 P1 M VDD VNW PCH W=0.15u L=0.06u
MPA1010 P1_11 NS VDD VNW PCH W=0.15u L=0.06u
MPA1019 NIN A VDD VNW PCH W=0.4u L=0.06u
MPA1024 QN S VDD VNW PCH W=2.1u L=0.06u
MPA1028 NS S VDD VNW PCH W=0.15u L=0.06u
MPA1032 BCLK NCLK VDD VNW PCH W=0.48u L=0.06u
MPA1036 NCLK CK VDD VNW PCH W=0.35u L=0.06u
MPA1040 M NM VDD VNW PCH W=0.7u L=0.06u
MPA2 NIN B VDD VNW PCH W=0.4u L=0.06u
MPOEN S NCLK M VNW PCH W=0.58u L=0.06u
MPOEN014 S BCLK P1_11 VNW PCH W=0.15u L=0.06u
MPOEN044 NM BCLK NIN VNW PCH W=0.45u L=0.06u
MPOEN06 NM NCLK P1 VNW PCH W=0.15u L=0.06u
.ENDS	A2DFFQNX3MA10TR

****
.SUBCKT A2DFFQX0P5MA10TR  VDD VSS VPW VNW Q   CK A B
MNA1 NCLK CK VSS VPW NCH W=0.15u L=0.06u
MNA1012 N1 NS VSS VPW NCH W=0.15u L=0.06u
MNA1020 N1_9 M VSS VPW NCH W=0.15u L=0.06u
MNA1028 M NM VSS VPW NCH W=0.15u L=0.06u
MNA1036 NIN A N1_13 VPW NCH W=0.4u L=0.06u
MNA104 BCLK NCLK VSS VPW NCH W=0.15u L=0.06u
MNA1042 Q NS VSS VPW NCH W=0.31u L=0.06u
MNA108 NS S VSS VPW NCH W=0.15u L=0.06u
MNA2 N1_13 B VSS VPW NCH W=0.4u L=0.06u
MNOE S BCLK M VPW NCH W=0.15u L=0.06u
MNOE016 S NCLK N1 VPW NCH W=0.15u L=0.06u
MNOE024 NM BCLK N1_9 VPW NCH W=0.15u L=0.06u
MNOE032 NM NCLK NIN VPW NCH W=0.15u L=0.06u
MPA1 NCLK CK VDD VNW PCH W=0.2u L=0.06u
MPA1010 NS S VDD VNW PCH W=0.25u L=0.06u
MPA1014 P1 NS VDD VNW PCH W=0.15u L=0.06u
MPA1022 P1_11 M VDD VNW PCH W=0.15u L=0.06u
MPA1030 M NM VDD VNW PCH W=0.25u L=0.06u
MPA1039 NIN A VDD VNW PCH W=0.2u L=0.06u
MPA1044 Q NS VDD VNW PCH W=0.37u L=0.06u
MPA106 BCLK NCLK VDD VNW PCH W=0.2u L=0.06u
MPA2 NIN B VDD VNW PCH W=0.2u L=0.06u
MPOEN S NCLK M VNW PCH W=0.15u L=0.06u
MPOEN018 S BCLK P1 VNW PCH W=0.15u L=0.06u
MPOEN026 NM NCLK P1_11 VNW PCH W=0.15u L=0.06u
MPOEN034 NM BCLK NIN VNW PCH W=0.15u L=0.06u
.ENDS	A2DFFQX0P5MA10TR


****
.SUBCKT A2DFFQX1MA10TR  VDD VSS VPW VNW Q   CK A B
MNA1 M NM VSS VPW NCH W=0.28u L=0.06u
MNA1010 BCLK NCLK VSS VPW NCH W=0.15u L=0.06u
MNA1014 N1 NS VSS VPW NCH W=0.15u L=0.06u
MNA102 Q NS VSS VPW NCH W=0.58u L=0.06u
MNA1020 N1_9 M VSS VPW NCH W=0.15u L=0.06u
MNA1036 NS S VSS VPW NCH W=0.3u L=0.06u
MNA1040 NIN A N1_13 VPW NCH W=0.45u L=0.06u
MNA106 NCLK CK VSS VPW NCH W=0.17u L=0.06u
MNA2 N1_13 B VSS VPW NCH W=0.45u L=0.06u
MNOE S NCLK N1 VPW NCH W=0.15u L=0.06u
MNOE024 NM BCLK N1_9 VPW NCH W=0.15u L=0.06u
MNOE028 NM NCLK NIN VPW NCH W=0.28u L=0.06u
MNOE032 S BCLK M VPW NCH W=0.28u L=0.06u
MPA1 M NM VDD VNW PCH W=0.4u L=0.06u
MPA1012 BCLK NCLK VDD VNW PCH W=0.3u L=0.06u
MPA1016 P1 NS VDD VNW PCH W=0.15u L=0.06u
MPA1022 P1_11 M VDD VNW PCH W=0.15u L=0.06u
MPA1038 NS S VDD VNW PCH W=0.47u L=0.06u
MPA104 Q NS VDD VNW PCH W=0.7u L=0.06u
MPA1043 NIN A VDD VNW PCH W=0.3u L=0.06u
MPA108 NCLK CK VDD VNW PCH W=0.22u L=0.06u
MPA2 NIN B VDD VNW PCH W=0.3u L=0.06u
MPOEN S BCLK P1 VNW PCH W=0.15u L=0.06u
MPOEN026 NM NCLK P1_11 VNW PCH W=0.15u L=0.06u
MPOEN030 NM BCLK NIN VNW PCH W=0.28u L=0.06u
MPOEN034 S NCLK M VNW PCH W=0.28u L=0.06u
.ENDS	A2DFFQX1MA10TR

****
.SUBCKT A2DFFQX2MA10TR  VDD VSS VPW VNW Q   CK A B
MNA1 NCLK CK VSS VPW NCH W=0.21u L=0.06u
MNA1012 N1 NS VSS VPW NCH W=0.15u L=0.06u
MNA1020 N1_9 M VSS VPW NCH W=0.15u L=0.06u
MNA1028 M NM VSS VPW NCH W=0.4u L=0.06u
MNA1036 NIN A N1_13 VPW NCH W=0.58u L=0.06u
MNA104 BCLK NCLK VSS VPW NCH W=0.18u L=0.06u
MNA1042 Q NS VSS VPW NCH W=1.16u L=0.06u
MNA108 NS S VSS VPW NCH W=0.43u L=0.06u
MNA2 N1_13 B VSS VPW NCH W=0.58u L=0.06u
MNOE S BCLK M VPW NCH W=0.4u L=0.06u
MNOE016 S NCLK N1 VPW NCH W=0.15u L=0.06u
MNOE024 NM BCLK N1_9 VPW NCH W=0.15u L=0.06u
MNOE032 NM NCLK NIN VPW NCH W=0.4u L=0.06u
MPA1 NCLK CK VDD VNW PCH W=0.26u L=0.06u
MPA1010 NS S VDD VNW PCH W=0.7u L=0.06u
MPA1014 P1 NS VDD VNW PCH W=0.15u L=0.06u
MPA1022 P1_11 M VDD VNW PCH W=0.15u L=0.06u
MPA1030 M NM VDD VNW PCH W=0.65u L=0.06u
MPA1039 NIN A VDD VNW PCH W=0.5u L=0.06u
MPA1044 Q NS VDD VNW PCH W=1.4u L=0.06u
MPA106 BCLK NCLK VDD VNW PCH W=0.36u L=0.06u
MPA2 NIN B VDD VNW PCH W=0.5u L=0.06u
MPOEN S NCLK M VNW PCH W=0.4u L=0.06u
MPOEN018 S BCLK P1 VNW PCH W=0.15u L=0.06u
MPOEN026 NM NCLK P1_11 VNW PCH W=0.15u L=0.06u
MPOEN034 NM BCLK NIN VNW PCH W=0.4u L=0.06u
.ENDS	A2DFFQX2MA10TR

****
.SUBCKT A2DFFQX3MA10TR  VDD VSS VPW VNW Q   CK A B
MNA1 NCLK CK VSS VPW NCH W=0.24u L=0.06u
MNA1010 Q NS VSS VPW NCH W=1.74u L=0.06u
MNA1014 N1 NS VSS VPW NCH W=0.15u L=0.06u
MNA102 BCLK NCLK VSS VPW NCH W=0.21u L=0.06u
MNA1020 N1_9 M VSS VPW NCH W=0.15u L=0.06u
MNA1036 NS S VSS VPW NCH W=0.43u L=0.06u
MNA1040 NIN A N1_13 VPW NCH W=0.58u L=0.06u
MNA106 M NM VSS VPW NCH W=0.51u L=0.06u
MNA2 N1_13 B VSS VPW NCH W=0.58u L=0.06u
MNOE S NCLK N1 VPW NCH W=0.15u L=0.06u
MNOE024 NM BCLK N1_9 VPW NCH W=0.15u L=0.06u
MNOE028 NM NCLK NIN VPW NCH W=0.45u L=0.06u
MNOE032 S BCLK M VPW NCH W=0.45u L=0.06u
MPA1 NCLK CK VDD VNW PCH W=0.3u L=0.06u
MPA1012 Q NS VDD VNW PCH W=2.1u L=0.06u
MPA1016 P1 NS VDD VNW PCH W=0.15u L=0.06u
MPA1022 P1_11 M VDD VNW PCH W=0.15u L=0.06u
MPA1038 NS S VDD VNW PCH W=0.7u L=0.06u
MPA104 BCLK NCLK VDD VNW PCH W=0.42u L=0.06u
MPA1043 NIN A VDD VNW PCH W=0.5u L=0.06u
MPA108 M NM VDD VNW PCH W=0.77u L=0.06u
MPA2 NIN B VDD VNW PCH W=0.5u L=0.06u
MPOEN S BCLK P1 VNW PCH W=0.15u L=0.06u
MPOEN026 NM NCLK P1_11 VNW PCH W=0.15u L=0.06u
MPOEN030 NM BCLK NIN VNW PCH W=0.45u L=0.06u
MPOEN034 S NCLK M VNW PCH W=0.45u L=0.06u
.ENDS	A2DFFQX3MA10TR

****
.SUBCKT A2DFFQX4MA10TR  VDD VSS VPW VNW Q   CK A B
MNA1 NCLK CK VSS VPW NCH W=0.28u L=0.06u
MNA1010 Q NS VSS VPW NCH W=2.32u L=0.06u
MNA1014 N1 NS VSS VPW NCH W=0.15u L=0.06u
MNA102 BCLK NCLK VSS VPW NCH W=0.25u L=0.06u
MNA1020 N1_9 M VSS VPW NCH W=0.15u L=0.06u
MNA1036 NS S VSS VPW NCH W=0.8u L=0.06u
MNA1040 NIN A N1_13 VPW NCH W=0.58u L=0.06u
MNA106 M NM VSS VPW NCH W=0.58u L=0.06u
MNA2 N1_13 B VSS VPW NCH W=0.58u L=0.06u
MNOE S NCLK N1 VPW NCH W=0.15u L=0.06u
MNOE024 NM BCLK N1_9 VPW NCH W=0.15u L=0.06u
MNOE028 NM NCLK NIN VPW NCH W=0.45u L=0.06u
MNOE032 S BCLK M VPW NCH W=0.58u L=0.06u
MPA1 NCLK CK VDD VNW PCH W=0.35u L=0.06u
MPA1012 Q NS VDD VNW PCH W=2.8u L=0.06u
MPA1016 P1 NS VDD VNW PCH W=0.15u L=0.06u
MPA1022 P1_11 M VDD VNW PCH W=0.15u L=0.06u
MPA1038 NS S VDD VNW PCH W=1u L=0.06u
MPA104 BCLK NCLK VDD VNW PCH W=0.5u L=0.06u
MPA1043 NIN A VDD VNW PCH W=0.5u L=0.06u
MPA108 M NM VDD VNW PCH W=0.7u L=0.06u
MPA2 NIN B VDD VNW PCH W=0.5u L=0.06u
MPOEN S BCLK P1 VNW PCH W=0.15u L=0.06u
MPOEN026 NM NCLK P1_11 VNW PCH W=0.15u L=0.06u
MPOEN030 NM BCLK NIN VNW PCH W=0.45u L=0.06u
MPOEN034 S NCLK M VNW PCH W=0.58u L=0.06u
.ENDS	A2DFFQX4MA10TR

****
.SUBCKT A2SDFFQNX0P5MA10TR  VDD VSS VPW VNW QN   CK A B SE SI
MN0 NMUX A N1 VPW NCH W=0.3u L=0.06u
MN1 N2 NSE VSS VPW NCH W=0.3u L=0.06u
MN2 N1 B N2 VPW NCH W=0.3u L=0.06u
MNA1 NS S VSS VPW NCH W=0.15u L=0.06u
MNA1012 N1_15 NS VSS VPW NCH W=0.15u L=0.06u
MNA1021 N1_19 M VSS VPW NCH W=0.15u L=0.06u
MNA1038 NSE SE VSS VPW NCH W=0.15u L=0.06u
MNA104 N1_11 SI VSS VPW NCH W=0.15u L=0.06u
MNA1042 NCLK CK VSS VPW NCH W=0.15u L=0.06u
MNA1046 BCLK NCLK VSS VPW NCH W=0.15u L=0.06u
MNA1050 M NM VSS VPW NCH W=0.15u L=0.06u
MNA1054 QN S VSS VPW NCH W=0.28u L=0.06u
MNOE NMUX SE N1_11 VPW NCH W=0.15u L=0.06u
MNOE016 S NCLK N1_15 VPW NCH W=0.15u L=0.06u
MNOE025 NM BCLK N1_19 VPW NCH W=0.15u L=0.06u
MNOE030 NM NCLK NMUX VPW NCH W=0.15u L=0.06u
MNOE034 S BCLK M VPW NCH W=0.15u L=0.06u
MP0 NMUX B P1 VNW PCH W=0.29u L=0.06u
MP1 P1 SE VDD VNW PCH W=0.29u L=0.06u
MP2 NMUX A P1 VNW PCH W=0.29u L=0.06u
MPA1 NS S VDD VNW PCH W=0.15u L=0.06u
MPA1014 P1_17 NS VDD VNW PCH W=0.15u L=0.06u
MPA1023 P1_21 M VDD VNW PCH W=0.15u L=0.06u
MPA1040 NSE SE VDD VNW PCH W=0.2u L=0.06u
MPA1044 NCLK CK VDD VNW PCH W=0.2u L=0.06u
MPA1048 BCLK NCLK VDD VNW PCH W=0.2u L=0.06u
MPA1052 M NM VDD VNW PCH W=0.22u L=0.06u
MPA1056 QN S VDD VNW PCH W=0.37u L=0.06u
MPA106 P1_13 SI VDD VNW PCH W=0.15u L=0.06u
MPOEN NMUX NSE P1_13 VNW PCH W=0.15u L=0.06u
MPOEN018 S BCLK P1_17 VNW PCH W=0.15u L=0.06u
MPOEN027 NM NCLK P1_21 VNW PCH W=0.15u L=0.06u
MPOEN032 NM BCLK NMUX VNW PCH W=0.15u L=0.06u
MPOEN036 S NCLK M VNW PCH W=0.15u L=0.06u
.ENDS	A2SDFFQNX0P5MA10TR

****
.SUBCKT A2SDFFQNX1MA10TR  VDD VSS VPW VNW QN   CK A B SE SI
MN2 N1 B N2 VPW NCH W=0.5u L=0.06u
MN3 NMUX A N1 VPW NCH W=0.5u L=0.06u
MN4 N2 NSE VSS VPW NCH W=0.5u L=0.06u
MNA1 NS S VSS VPW NCH W=0.15u L=0.06u
MNA1018 N1_19 M VSS VPW NCH W=0.15u L=0.06u
MNA102 N1_11 SI VSS VPW NCH W=0.15u L=0.06u
MNA1038 NSE SE VSS VPW NCH W=0.15u L=0.06u
MNA1042 NCLK CK VSS VPW NCH W=0.17u L=0.06u
MNA1046 BCLK NCLK VSS VPW NCH W=0.15u L=0.06u
MNA1050 M NM VSS VPW NCH W=0.32u L=0.06u
MNA1054 QN S VSS VPW NCH W=0.53u L=0.06u
MNA109 N1_15 NS VSS VPW NCH W=0.15u L=0.06u
MNOE NMUX SE N1_11 VPW NCH W=0.15u L=0.06u
MNOE013 S NCLK N1_15 VPW NCH W=0.15u L=0.06u
MNOE022 NM BCLK N1_19 VPW NCH W=0.15u L=0.06u
MNOE028 NM NCLK NMUX VPW NCH W=0.28u L=0.06u
MNOE034 S BCLK M VPW NCH W=0.28u L=0.06u
MP2 NMUX A P1 VNW PCH W=0.48u L=0.06u
MP3 P1 SE VDD VNW PCH W=0.48u L=0.06u
MP4 NMUX B P1 VNW PCH W=0.48u L=0.06u
MPA1 NS S VDD VNW PCH W=0.15u L=0.06u
MPA1011 P1_17 NS VDD VNW PCH W=0.15u L=0.06u
MPA1020 P1_21 M VDD VNW PCH W=0.15u L=0.06u
MPA104 P1_13 SI VDD VNW PCH W=0.2u L=0.06u
MPA1040 NSE SE VDD VNW PCH W=0.2u L=0.06u
MPA1044 NCLK CK VDD VNW PCH W=0.22u L=0.06u
MPA1048 BCLK NCLK VDD VNW PCH W=0.3u L=0.06u
MPA1052 M NM VDD VNW PCH W=0.48u L=0.06u
MPA1056 QN S VDD VNW PCH W=0.7u L=0.06u
MPOEN NMUX NSE P1_13 VNW PCH W=0.2u L=0.06u
MPOEN015 S BCLK P1_17 VNW PCH W=0.15u L=0.06u
MPOEN024 NM NCLK P1_21 VNW PCH W=0.15u L=0.06u
MPOEN030 NM BCLK NMUX VNW PCH W=0.28u L=0.06u
MPOEN036 S NCLK M VNW PCH W=0.28u L=0.06u
.ENDS	A2SDFFQNX1MA10TR

****
.SUBCKT A2SDFFQNX2MA10TR  VDD VSS VPW VNW QN   CK A B SE SI
MN2 N1 B N2 VPW NCH W=0.61u L=0.06u
MN3 NMUX A N1 VPW NCH W=0.61u L=0.06u
MN4 N2 NSE VSS VPW NCH W=0.61u L=0.06u
MNA1 NS S VSS VPW NCH W=0.15u L=0.06u
MNA1018 N1_19 M VSS VPW NCH W=0.15u L=0.06u
MNA102 N1_11 SI VSS VPW NCH W=0.15u L=0.06u
MNA1038 NSE SE VSS VPW NCH W=0.15u L=0.06u
MNA1042 NCLK CK VSS VPW NCH W=0.21u L=0.06u
MNA1046 BCLK NCLK VSS VPW NCH W=0.18u L=0.06u
MNA1050 M NM VSS VPW NCH W=0.4u L=0.06u
MNA1054 QN S VSS VPW NCH W=1.06u L=0.06u
MNA109 N1_15 NS VSS VPW NCH W=0.15u L=0.06u
MNOE NMUX SE N1_11 VPW NCH W=0.15u L=0.06u
MNOE013 S NCLK N1_15 VPW NCH W=0.15u L=0.06u
MNOE022 NM BCLK N1_19 VPW NCH W=0.15u L=0.06u
MNOE028 NM NCLK NMUX VPW NCH W=0.4u L=0.06u
MNOE034 S BCLK M VPW NCH W=0.4u L=0.06u
MP2 NMUX A P1 VNW PCH W=0.59u L=0.06u
MP3 P1 SE VDD VNW PCH W=0.59u L=0.06u
MP4 NMUX B P1 VNW PCH W=0.59u L=0.06u
MPA1 NS S VDD VNW PCH W=0.15u L=0.06u
MPA1011 P1_17 NS VDD VNW PCH W=0.15u L=0.06u
MPA1020 P1_21 M VDD VNW PCH W=0.15u L=0.06u
MPA104 P1_13 SI VDD VNW PCH W=0.2u L=0.06u
MPA1040 NSE SE VDD VNW PCH W=0.2u L=0.06u
MPA1044 NCLK CK VDD VNW PCH W=0.26u L=0.06u
MPA1048 BCLK NCLK VDD VNW PCH W=0.36u L=0.06u
MPA1052 M NM VDD VNW PCH W=0.56u L=0.06u
MPA1056 QN S VDD VNW PCH W=1.4u L=0.06u
MPOEN NMUX NSE P1_13 VNW PCH W=0.2u L=0.06u
MPOEN015 S BCLK P1_17 VNW PCH W=0.15u L=0.06u
MPOEN024 NM NCLK P1_21 VNW PCH W=0.15u L=0.06u
MPOEN030 NM BCLK NMUX VNW PCH W=0.4u L=0.06u
MPOEN036 S NCLK M VNW PCH W=0.4u L=0.06u
.ENDS	A2SDFFQNX2MA10TR

****
.SUBCKT A2SDFFQNX3MA10TR  VDD VSS VPW VNW QN   CK A B SE SI
MN5 N1 B N2 VPW NCH W=0.61u L=0.06u
MN6 NMUX A N1 VPW NCH W=0.61u L=0.06u
MN7 N2 NSE VSS VPW NCH W=0.61u L=0.06u
MNA1 N1_11 M VSS VPW NCH W=0.15u L=0.06u
MNA1014 N1_15 NS VSS VPW NCH W=0.15u L=0.06u
MNA1022 QN S VSS VPW NCH W=1.59u L=0.06u
MNA1026 NS S VSS VPW NCH W=0.15u L=0.06u
MNA1030 N1_19 SI VSS VPW NCH W=0.15u L=0.06u
MNA1038 BCLK NCLK VSS VPW NCH W=0.24u L=0.06u
MNA1042 NCLK CK VSS VPW NCH W=0.28u L=0.06u
MNA1046 NSE SE VSS VPW NCH W=0.15u L=0.06u
MNA1050 M NM VSS VPW NCH W=0.58u L=0.06u
MNOE S BCLK M VPW NCH W=0.58u L=0.06u
MNOE010 NM BCLK N1_11 VPW NCH W=0.15u L=0.06u
MNOE018 S NCLK N1_15 VPW NCH W=0.15u L=0.06u
MNOE034 NMUX SE N1_19 VPW NCH W=0.15u L=0.06u
MNOE054 NM NCLK NMUX VPW NCH W=0.45u L=0.06u
MP5 NMUX A P1 VNW PCH W=0.59u L=0.06u
MP6 P1 SE VDD VNW PCH W=0.59u L=0.06u
MP7 NMUX B P1 VNW PCH W=0.59u L=0.06u
MPA1 P1_13 M VDD VNW PCH W=0.15u L=0.06u
MPA1016 P1_17 NS VDD VNW PCH W=0.15u L=0.06u
MPA1024 QN S VDD VNW PCH W=2.1u L=0.06u
MPA1028 NS S VDD VNW PCH W=0.15u L=0.06u
MPA1032 P1_21 SI VDD VNW PCH W=0.2u L=0.06u
MPA1040 BCLK NCLK VDD VNW PCH W=0.48u L=0.06u
MPA1044 NCLK CK VDD VNW PCH W=0.35u L=0.06u
MPA1048 NSE SE VDD VNW PCH W=0.2u L=0.06u
MPA1052 M NM VDD VNW PCH W=0.7u L=0.06u
MPOEN S NCLK M VNW PCH W=0.58u L=0.06u
MPOEN012 NM NCLK P1_13 VNW PCH W=0.15u L=0.06u
MPOEN020 S BCLK P1_17 VNW PCH W=0.15u L=0.06u
MPOEN036 NMUX NSE P1_21 VNW PCH W=0.2u L=0.06u
MPOEN056 NM BCLK NMUX VNW PCH W=0.45u L=0.06u
.ENDS	A2SDFFQNX3MA10TR

****
.SUBCKT A2SDFFQX0P5MA10TR  VDD VSS VPW VNW Q   CK A B SE SI
MN0 NMUX A N1 VPW NCH W=0.3u L=0.06u
MN1 N2 NSE VSS VPW NCH W=0.3u L=0.06u
MN2 N1 B N2 VPW NCH W=0.3u L=0.06u
MNA1 NCLK CK VSS VPW NCH W=0.15u L=0.06u
MNA1013 N1_11 NS VSS VPW NCH W=0.15u L=0.06u
MNA1026 N1_15 M VSS VPW NCH W=0.15u L=0.06u
MNA1034 M NM VSS VPW NCH W=0.15u L=0.06u
MNA1038 N1_19 SI VSS VPW NCH W=0.15u L=0.06u
MNA104 BCLK NCLK VSS VPW NCH W=0.15u L=0.06u
MNA1050 NSE SE VSS VPW NCH W=0.15u L=0.06u
MNA1054 Q NS VSS VPW NCH W=0.31u L=0.06u
MNA108 NS S VSS VPW NCH W=0.15u L=0.06u
MNOE S BCLK M VPW NCH W=0.15u L=0.06u
MNOE017 S NCLK N1_11 VPW NCH W=0.15u L=0.06u
MNOE030 NM BCLK N1_15 VPW NCH W=0.15u L=0.06u
MNOE042 NMUX SE N1_19 VPW NCH W=0.15u L=0.06u
MNOE046 NM NCLK NMUX VPW NCH W=0.15u L=0.06u
MP0 NMUX B P1 VNW PCH W=0.29u L=0.06u
MP1 P1 SE VDD VNW PCH W=0.29u L=0.06u
MP2 NMUX A P1 VNW PCH W=0.29u L=0.06u
MPA1 NCLK CK VDD VNW PCH W=0.2u L=0.06u
MPA1010 NS S VDD VNW PCH W=0.24u L=0.06u
MPA1015 P1_13 NS VDD VNW PCH W=0.15u L=0.06u
MPA1028 P1_17 M VDD VNW PCH W=0.15u L=0.06u
MPA1036 M NM VDD VNW PCH W=0.22u L=0.06u
MPA1040 P1_21 SI VDD VNW PCH W=0.15u L=0.06u
MPA1052 NSE SE VDD VNW PCH W=0.2u L=0.06u
MPA1056 Q NS VDD VNW PCH W=0.37u L=0.06u
MPA106 BCLK NCLK VDD VNW PCH W=0.2u L=0.06u
MPOEN S NCLK M VNW PCH W=0.15u L=0.06u
MPOEN019 S BCLK P1_13 VNW PCH W=0.15u L=0.06u
MPOEN032 NM NCLK P1_17 VNW PCH W=0.15u L=0.06u
MPOEN044 NMUX NSE P1_21 VNW PCH W=0.15u L=0.06u
MPOEN048 NM BCLK NMUX VNW PCH W=0.15u L=0.06u
.ENDS	A2SDFFQX0P5MA10TR

****
.SUBCKT A2SDFFQX1MA10TR  VDD VSS VPW VNW Q   CK A B SE SI
MN5 N1 B N2 VPW NCH W=0.58u L=0.06u
MN6 NMUX A N1 VPW NCH W=0.58u L=0.06u
MN7 N2 NSE VSS VPW NCH W=0.58u L=0.06u
MNA1 NCLK CK VSS VPW NCH W=0.17u L=0.06u
MNA1010 Q NS VSS VPW NCH W=0.58u L=0.06u
MNA102 BCLK NCLK VSS VPW NCH W=0.15u L=0.06u
MNA1020 N1_11 SI VSS VPW NCH W=0.15u L=0.06u
MNA1026 N1_15 NS VSS VPW NCH W=0.15u L=0.06u
MNA1034 N1_19 M VSS VPW NCH W=0.15u L=0.06u
MNA1050 NSE SE VSS VPW NCH W=0.15u L=0.06u
MNA1054 NS S VSS VPW NCH W=0.3u L=0.06u
MNA106 M NM VSS VPW NCH W=0.28u L=0.06u
MNOE NMUX SE N1_11 VPW NCH W=0.15u L=0.06u
MNOE030 S NCLK N1_15 VPW NCH W=0.15u L=0.06u
MNOE038 NM BCLK N1_19 VPW NCH W=0.15u L=0.06u
MNOE042 NM NCLK NMUX VPW NCH W=0.28u L=0.06u
MNOE046 S BCLK M VPW NCH W=0.28u L=0.06u
MP5 NMUX A P1 VNW PCH W=0.5u L=0.06u
MP6 P1 SE VDD VNW PCH W=0.5u L=0.06u
MP7 NMUX B P1 VNW PCH W=0.5u L=0.06u
MPA1 NCLK CK VDD VNW PCH W=0.22u L=0.06u
MPA1012 Q NS VDD VNW PCH W=0.7u L=0.06u
MPA1022 P1_13 SI VDD VNW PCH W=0.2u L=0.06u
MPA1028 P1_17 NS VDD VNW PCH W=0.15u L=0.06u
MPA1036 P1_21 M VDD VNW PCH W=0.15u L=0.06u
MPA104 BCLK NCLK VDD VNW PCH W=0.3u L=0.06u
MPA1052 NSE SE VDD VNW PCH W=0.2u L=0.06u
MPA1056 NS S VDD VNW PCH W=0.47u L=0.06u
MPA108 M NM VDD VNW PCH W=0.4u L=0.06u
MPOEN NMUX NSE P1_13 VNW PCH W=0.2u L=0.06u
MPOEN032 S BCLK P1_17 VNW PCH W=0.15u L=0.06u
MPOEN040 NM NCLK P1_21 VNW PCH W=0.15u L=0.06u
MPOEN044 NM BCLK NMUX VNW PCH W=0.28u L=0.06u
MPOEN048 S NCLK M VNW PCH W=0.28u L=0.06u
.ENDS	A2SDFFQX1MA10TR

****
.SUBCKT A2SDFFQX2MA10TR  VDD VSS VPW VNW Q   CK A B SE SI
MN2 N1 B N2 VPW NCH W=0.62u L=0.06u
MN3 NMUX A N1 VPW NCH W=0.62u L=0.06u
MN4 N2 NSE VSS VPW NCH W=0.62u L=0.06u
MNA1 NCLK CK VSS VPW NCH W=0.21u L=0.06u
MNA1012 N1_11 NS VSS VPW NCH W=0.15u L=0.06u
MNA1026 N1_15 M VSS VPW NCH W=0.15u L=0.06u
MNA1034 M NM VSS VPW NCH W=0.4u L=0.06u
MNA1038 N1_19 SI VSS VPW NCH W=0.15u L=0.06u
MNA104 BCLK NCLK VSS VPW NCH W=0.18u L=0.06u
MNA1050 NSE SE VSS VPW NCH W=0.15u L=0.06u
MNA1054 Q NS VSS VPW NCH W=1.16u L=0.06u
MNA108 NS S VSS VPW NCH W=0.44u L=0.06u
MNOE S BCLK M VPW NCH W=0.4u L=0.06u
MNOE016 S NCLK N1_11 VPW NCH W=0.15u L=0.06u
MNOE030 NM BCLK N1_15 VPW NCH W=0.15u L=0.06u
MNOE042 NMUX SE N1_19 VPW NCH W=0.15u L=0.06u
MNOE046 NM NCLK NMUX VPW NCH W=0.4u L=0.06u
MP2 NMUX A P1 VNW PCH W=0.58u L=0.06u
MP3 P1 SE VDD VNW PCH W=0.58u L=0.06u
MP4 NMUX B P1 VNW PCH W=0.58u L=0.06u
MPA1 NCLK CK VDD VNW PCH W=0.26u L=0.06u
MPA1010 NS S VDD VNW PCH W=0.7u L=0.06u
MPA1014 P1_13 NS VDD VNW PCH W=0.15u L=0.06u
MPA1028 P1_17 M VDD VNW PCH W=0.15u L=0.06u
MPA1036 M NM VDD VNW PCH W=0.57u L=0.06u
MPA1040 P1_21 SI VDD VNW PCH W=0.2u L=0.06u
MPA1052 NSE SE VDD VNW PCH W=0.2u L=0.06u
MPA1056 Q NS VDD VNW PCH W=1.4u L=0.06u
MPA106 BCLK NCLK VDD VNW PCH W=0.36u L=0.06u
MPOEN S NCLK M VNW PCH W=0.4u L=0.06u
MPOEN018 S BCLK P1_13 VNW PCH W=0.15u L=0.06u
MPOEN032 NM NCLK P1_17 VNW PCH W=0.15u L=0.06u
MPOEN044 NMUX NSE P1_21 VNW PCH W=0.2u L=0.06u
MPOEN048 NM BCLK NMUX VNW PCH W=0.4u L=0.06u
.ENDS	A2SDFFQX2MA10TR

****
.SUBCKT A2SDFFQX3MA10TR  VDD VSS VPW VNW Q   CK A B SE SI
MN5 N1 B N2 VPW NCH W=0.62u L=0.06u
MN6 NMUX A N1 VPW NCH W=0.62u L=0.06u
MN7 N2 NSE VSS VPW NCH W=0.62u L=0.06u
MNA1 NCLK CK VSS VPW NCH W=0.24u L=0.06u
MNA1010 Q NS VSS VPW NCH W=1.74u L=0.06u
MNA102 BCLK NCLK VSS VPW NCH W=0.21u L=0.06u
MNA1020 N1_11 NS VSS VPW NCH W=0.15u L=0.06u
MNA1026 N1_15 M VSS VPW NCH W=0.15u L=0.06u
MNA1042 NSE SE VSS VPW NCH W=0.15u L=0.06u
MNA1046 NS S VSS VPW NCH W=0.47u L=0.06u
MNA1050 N1_19 SI VSS VPW NCH W=0.15u L=0.06u
MNA106 M NM VSS VPW NCH W=0.51u L=0.06u
MNOE S NCLK N1_11 VPW NCH W=0.15u L=0.06u
MNOE030 NM BCLK N1_15 VPW NCH W=0.15u L=0.06u
MNOE034 NM NCLK NMUX VPW NCH W=0.45u L=0.06u
MNOE038 S BCLK M VPW NCH W=0.45u L=0.06u
MNOE054 NMUX SE N1_19 VPW NCH W=0.15u L=0.06u
MP5 NMUX A P1 VNW PCH W=0.58u L=0.06u
MP6 P1 SE VDD VNW PCH W=0.58u L=0.06u
MP7 NMUX B P1 VNW PCH W=0.58u L=0.06u
MPA1 NCLK CK VDD VNW PCH W=0.3u L=0.06u
MPA1012 Q NS VDD VNW PCH W=2.1u L=0.06u
MPA1022 P1_13 NS VDD VNW PCH W=0.15u L=0.06u
MPA1028 P1_17 M VDD VNW PCH W=0.15u L=0.06u
MPA104 BCLK NCLK VDD VNW PCH W=0.42u L=0.06u
MPA1044 NSE SE VDD VNW PCH W=0.2u L=0.06u
MPA1048 NS S VDD VNW PCH W=0.7u L=0.06u
MPA1052 P1_21 SI VDD VNW PCH W=0.2u L=0.06u
MPA108 M NM VDD VNW PCH W=0.77u L=0.06u
MPOEN S BCLK P1_13 VNW PCH W=0.15u L=0.06u
MPOEN032 NM NCLK P1_17 VNW PCH W=0.15u L=0.06u
MPOEN036 NM BCLK NMUX VNW PCH W=0.45u L=0.06u
MPOEN040 S NCLK M VNW PCH W=0.45u L=0.06u
MPOEN056 NMUX NSE P1_21 VNW PCH W=0.2u L=0.06u
.ENDS	A2SDFFQX3MA10TR

****
.SUBCKT A2SDFFQX4MA10TR  VDD VSS VPW VNW Q   CK A B SE SI
MN5 N1 B N2 VPW NCH W=0.62u L=0.06u
MN6 NMUX A N1 VPW NCH W=0.62u L=0.06u
MN7 N2 NSE VSS VPW NCH W=0.62u L=0.06u
MNA1 NCLK CK VSS VPW NCH W=0.28u L=0.06u
MNA1010 Q NS VSS VPW NCH W=2.32u L=0.06u
MNA102 BCLK NCLK VSS VPW NCH W=0.25u L=0.06u
MNA1020 N1_11 NS VSS VPW NCH W=0.15u L=0.06u
MNA1026 N1_15 M VSS VPW NCH W=0.15u L=0.06u
MNA1042 NSE SE VSS VPW NCH W=0.15u L=0.06u
MNA1046 NS S VSS VPW NCH W=0.8u L=0.06u
MNA1050 N1_19 SI VSS VPW NCH W=0.15u L=0.06u
MNA106 M NM VSS VPW NCH W=0.58u L=0.06u
MNOE S NCLK N1_11 VPW NCH W=0.15u L=0.06u
MNOE030 NM BCLK N1_15 VPW NCH W=0.15u L=0.06u
MNOE034 NM NCLK NMUX VPW NCH W=0.45u L=0.06u
MNOE038 S BCLK M VPW NCH W=0.58u L=0.06u
MNOE054 NMUX SE N1_19 VPW NCH W=0.15u L=0.06u
MP5 NMUX A P1 VNW PCH W=0.58u L=0.06u
MP6 P1 SE VDD VNW PCH W=0.58u L=0.06u
MP7 NMUX B P1 VNW PCH W=0.58u L=0.06u
MPA1 NCLK CK VDD VNW PCH W=0.35u L=0.06u
MPA1012 Q NS VDD VNW PCH W=2.8u L=0.06u
MPA1022 P1_13 NS VDD VNW PCH W=0.15u L=0.06u
MPA1028 P1_17 M VDD VNW PCH W=0.15u L=0.06u
MPA104 BCLK NCLK VDD VNW PCH W=0.5u L=0.06u
MPA1044 NSE SE VDD VNW PCH W=0.2u L=0.06u
MPA1048 NS S VDD VNW PCH W=1u L=0.06u
MPA1052 P1_21 SI VDD VNW PCH W=0.2u L=0.06u
MPA108 M NM VDD VNW PCH W=0.7u L=0.06u
MPOEN S BCLK P1_13 VNW PCH W=0.15u L=0.06u
MPOEN032 NM NCLK P1_17 VNW PCH W=0.15u L=0.06u
MPOEN036 NM BCLK NMUX VNW PCH W=0.45u L=0.06u
MPOEN040 S NCLK M VNW PCH W=0.58u L=0.06u
MPOEN056 NMUX NSE P1_21 VNW PCH W=0.2u L=0.06u
.ENDS	A2SDFFQX4MA10TR

****
.SUBCKT ADDFX1MA10TR  VDD VSS VPW VNW CO S   A B CI
MN0 NCOUT CI N1 VPW NCH W=0.39u L=0.06u
MN1 N1 A VSS VPW NCH W=0.39u L=0.06u
MN10 NET49 A NET46 VPW NCH W=0.35u L=0.06u
MN11 NET46 B VSS VPW NCH W=0.35u L=0.06u
MN2 N1 B VSS VPW NCH W=0.39u L=0.06u
MN3 NET34 B VSS VPW NCH W=0.39u L=0.06u
MN4 NCOUT A NET34 VPW NCH W=0.39u L=0.06u
MN5 N2 A VSS VPW NCH W=0.35u L=0.06u
MN6 N2 CI VSS VPW NCH W=0.35u L=0.06u
MN7 NSUM NCOUT N2 VPW NCH W=0.35u L=0.06u
MN8 N2 B VSS VPW NCH W=0.35u L=0.06u
MN9 NSUM CI NET49 VPW NCH W=0.35u L=0.06u
MNA1 CO NCOUT VSS VPW NCH W=0.53u L=0.06u
MNA1022 S NSUM VSS VPW NCH W=0.53u L=0.06u
MP0 NCOUT CI P1 VNW PCH W=0.65u L=0.06u
MP1 P1 A VDD VNW PCH W=0.65u L=0.06u
MP10 NET87 A NET84 VNW PCH W=0.45u L=0.06u
MP11 NET84 B VDD VNW PCH W=0.45u L=0.06u
MP2 P1 B VDD VNW PCH W=0.65u L=0.06u
MP3 NCOUT A NET69 VNW PCH W=0.65u L=0.06u
MP4 NET69 B VDD VNW PCH W=0.65u L=0.06u
MP5 P2 A VDD VNW PCH W=0.45u L=0.06u
MP6 P2 CI VDD VNW PCH W=0.45u L=0.06u
MP7 NSUM NCOUT P2 VNW PCH W=0.45u L=0.06u
MP8 P2 B VDD VNW PCH W=0.45u L=0.06u
MP9 NSUM CI NET87 VNW PCH W=0.45u L=0.06u
MPA1 CO NCOUT VDD VNW PCH W=0.7u L=0.06u
MPA1024 S NSUM VDD VNW PCH W=0.7u L=0.06u
.ENDS	ADDFX1MA10TR

****
.SUBCKT ADDFX1P4MA10TR  VDD VSS VPW VNW CO S   A B CI
MN0 NCOUT CI N1 VPW NCH W=0.39u L=0.06u
MN1 N1 A VSS VPW NCH W=0.39u L=0.06u
MN10 NET111 A NET105 VPW NCH W=0.35u L=0.06u
MN11 NET105 B VSS VPW NCH W=0.35u L=0.06u
MN2 N1 B VSS VPW NCH W=0.39u L=0.06u
MN3 NET87 B VSS VPW NCH W=0.39u L=0.06u
MN4 NCOUT A NET87 VPW NCH W=0.39u L=0.06u
MN5 N2 A VSS VPW NCH W=0.35u L=0.06u
MN6 N2 CI VSS VPW NCH W=0.35u L=0.06u
MN7 NSUM NCOUT N2 VPW NCH W=0.35u L=0.06u
MN8 N2 B VSS VPW NCH W=0.35u L=0.06u
MN9 NSUM CI NET111 VPW NCH W=0.35u L=0.06u
MNA1 CO NCOUT VSS VPW NCH W=0.74u L=0.06u
MNA1022 S NSUM VSS VPW NCH W=0.74u L=0.06u
MP0 NCOUT CI P1 VNW PCH W=0.65u L=0.06u
MP1 P1 A VDD VNW PCH W=0.65u L=0.06u
MP10 NET68 A NET71 VNW PCH W=0.45u L=0.06u
MP11 NET71 B VDD VNW PCH W=0.45u L=0.06u
MP2 P1 B VDD VNW PCH W=0.65u L=0.06u
MP3 NCOUT A NET50 VNW PCH W=0.65u L=0.06u
MP4 NET50 B VDD VNW PCH W=0.65u L=0.06u
MP5 P2 A VDD VNW PCH W=0.45u L=0.06u
MP6 P2 CI VDD VNW PCH W=0.45u L=0.06u
MP7 NSUM NCOUT P2 VNW PCH W=0.45u L=0.06u
MP8 P2 B VDD VNW PCH W=0.45u L=0.06u
MP9 NSUM CI NET68 VNW PCH W=0.45u L=0.06u
MPA1 CO NCOUT VDD VNW PCH W=0.98u L=0.06u
MPA1024 S NSUM VDD VNW PCH W=0.98u L=0.06u
.ENDS	ADDFX1P4MA10TR

****
.SUBCKT ADDFX2MA10TR  VDD VSS VPW VNW CO S   A B CI
MN0 NCOUT CI N1 VPW NCH W=0.39u L=0.06u
MN1 N1 A VSS VPW NCH W=0.39u L=0.06u
MN10 NET111 A NET105 VPW NCH W=0.35u L=0.06u
MN11 NET105 B VSS VPW NCH W=0.35u L=0.06u
MN2 N1 B VSS VPW NCH W=0.39u L=0.06u
MN3 NET87 B VSS VPW NCH W=0.39u L=0.06u
MN4 NCOUT A NET87 VPW NCH W=0.39u L=0.06u
MN5 N2 A VSS VPW NCH W=0.35u L=0.06u
MN6 N2 CI VSS VPW NCH W=0.35u L=0.06u
MN7 NSUM NCOUT N2 VPW NCH W=0.35u L=0.06u
MN8 N2 B VSS VPW NCH W=0.35u L=0.06u
MN9 NSUM CI NET111 VPW NCH W=0.35u L=0.06u
MNA1 CO NCOUT VSS VPW NCH W=1.06u L=0.06u
MNA1022 S NSUM VSS VPW NCH W=1.06u L=0.06u
MP0 NCOUT CI P1 VNW PCH W=0.65u L=0.06u
MP1 P1 A VDD VNW PCH W=0.65u L=0.06u
MP10 NET68 A NET71 VNW PCH W=0.45u L=0.06u
MP11 NET71 B VDD VNW PCH W=0.45u L=0.06u
MP2 P1 B VDD VNW PCH W=0.65u L=0.06u
MP3 NCOUT A NET50 VNW PCH W=0.65u L=0.06u
MP4 NET50 B VDD VNW PCH W=0.65u L=0.06u
MP5 P2 A VDD VNW PCH W=0.45u L=0.06u
MP6 P2 CI VDD VNW PCH W=0.45u L=0.06u
MP7 NSUM NCOUT P2 VNW PCH W=0.45u L=0.06u
MP8 P2 B VDD VNW PCH W=0.45u L=0.06u
MP9 NSUM CI NET68 VNW PCH W=0.45u L=0.06u
MPA1 CO NCOUT VDD VNW PCH W=1.4u L=0.06u
MPA1024 S NSUM VDD VNW PCH W=1.4u L=0.06u
.ENDS	ADDFX2MA10TR

****
.SUBCKT ADDHX1MA10TR  VDD VSS VPW VNW CO S   A B
MNA1 NSUM NCOUT N1 VPW NCH W=0.4u L=0.06u
MNA1010 NCOUT A N1_4 VPW NCH W=0.42u L=0.06u
MNA1016 CO NCOUT VSS VPW NCH W=0.53u L=0.06u
MNA106 S NSUM VSS VPW NCH W=0.53u L=0.06u
MNA2 N1_4 B VSS VPW NCH W=0.42u L=0.06u
MNB1 N1 A VSS VPW NCH W=0.4u L=0.06u
MNB2 N1 B VSS VPW NCH W=0.4u L=0.06u
MPA1 NSUM NCOUT VDD VNW PCH W=0.29u L=0.06u
MPA1013 NCOUT A VDD VNW PCH W=0.46u L=0.06u
MPA1018 CO NCOUT VDD VNW PCH W=0.7u L=0.06u
MPA108 S NSUM VDD VNW PCH W=0.7u L=0.06u
MPA2 NCOUT B VDD VNW PCH W=0.46u L=0.06u
MPB1 NSUM A P1 VNW PCH W=0.4u L=0.06u
MPB2 P1 B VDD VNW PCH W=0.4u L=0.06u
.ENDS	ADDHX1MA10TR

****
.SUBCKT ADDHX1P4MA10TR  VDD VSS VPW VNW CO S   A B
MNA1 NSUM NCOUT N1 VPW NCH W=0.58u L=0.06u
MNA1010 NCOUT A N1_4 VPW NCH W=0.58u L=0.06u
MNA1016 CO NCOUT VSS VPW NCH W=0.74u L=0.06u
MNA106 S NSUM VSS VPW NCH W=0.74u L=0.06u
MNA2 N1_4 B VSS VPW NCH W=0.58u L=0.06u
MNB1 N1 A VSS VPW NCH W=0.58u L=0.06u
MNB2 N1 B VSS VPW NCH W=0.58u L=0.06u
MPA1 NSUM NCOUT VDD VNW PCH W=0.42u L=0.06u
MPA1013 NCOUT A VDD VNW PCH W=0.64u L=0.06u
MPA1018 CO NCOUT VDD VNW PCH W=0.98u L=0.06u
MPA108 S NSUM VDD VNW PCH W=0.98u L=0.06u
MPA2 NCOUT B VDD VNW PCH W=0.64u L=0.06u
MPB1 NSUM A P1 VNW PCH W=0.58u L=0.06u
MPB2 P1 B VDD VNW PCH W=0.58u L=0.06u
.ENDS	ADDHX1P4MA10TR

****
.SUBCKT ADDHX2MA10TR  VDD VSS VPW VNW CO S   A B
MNA1 NSUM NCOUT N1 VPW NCH W=0.58u L=0.06u
MNA1010 NCOUT A N1_4 VPW NCH W=0.58u L=0.06u
MNA1016 CO NCOUT VSS VPW NCH W=1.06u L=0.06u
MNA106 S NSUM VSS VPW NCH W=1.06u L=0.06u
MNA2 N1_4 B VSS VPW NCH W=0.58u L=0.06u
MNB1 N1 A VSS VPW NCH W=0.58u L=0.06u
MNB2 N1 B VSS VPW NCH W=0.58u L=0.06u
MPA1 NSUM NCOUT VDD VNW PCH W=0.42u L=0.06u
MPA1013 NCOUT A VDD VNW PCH W=0.64u L=0.06u
MPA1018 CO NCOUT VDD VNW PCH W=1.4u L=0.06u
MPA108 S NSUM VDD VNW PCH W=1.4u L=0.06u
MPA2 NCOUT B VDD VNW PCH W=0.64u L=0.06u
MPB1 NSUM A P1 VNW PCH W=0.58u L=0.06u
MPB2 P1 B VDD VNW PCH W=0.58u L=0.06u
.ENDS	ADDHX2MA10TR

****
.SUBCKT AND2X0P5MA10TR  VDD VSS VPW VNW Y   A B
MNA1 INT A N1 VPW NCH W=0.19u L=0.06u
MNA104 Y INT VSS VPW NCH W=0.265u L=0.06u