

*01 Top of hierarchy  cell=an02d0
.subckt an02d0 B A VDD Y GND
M1 N_8 A N_2 GND mn5  l=0.5u w=0.5u m=1
M2 N_8 B GND GND mn5  l=0.5u w=0.5u m=1
M3 Y N_2 GND GND mn5  l=0.5u w=0.5u m=1
M4 N_2 A VDD VDD mp5  l=0.42u w=0.52u m=1
M5 N_2 B VDD VDD mp5  l=0.42u w=0.52u m=1
M6 Y N_2 VDD VDD mp5  l=0.42u w=0.52u m=1
.ends an02d0

*02 Top of hierarchy  cell=an03d0
.subckt an03d0 C B A GND Y VDD
M1 N_9 A N_2 GND mn5  l=0.5u w=0.5u m=1
M2 N_10 B N_9 GND mn5  l=0.5u w=0.5u m=1
M3 N_10 C GND GND mn5  l=0.5u w=0.5u m=1
M4 Y N_2 GND GND mn5  l=0.5u w=0.5u m=1
M5 N_2 A VDD VDD mp5  l=0.42u w=0.52u m=1
M6 N_2 B VDD VDD mp5  l=0.42u w=0.52u m=1
M7 N_2 C VDD VDD mp5  l=0.42u w=0.52u m=1
M8 Y N_2 VDD VDD mp5  l=0.42u w=0.52u m=1
.ends an03d0

*03 Top of hierarchy  cell=an04d0
.subckt an04d0 GND Y VDD D C B A
M1 N_6 A N_4 GND mn5  l=0.5u w=0.58u m=1
M2 N_7 B N_6 GND mn5  l=0.5u w=0.58u m=1
M3 N_8 C N_7 GND mn5  l=0.5u w=0.58u m=1
M4 N_8 D GND GND mn5  l=0.5u w=0.58u m=1
M5 Y N_4 GND GND mn5  l=0.5u w=0.5u m=1
M6 N_4 A VDD VDD mp5  l=0.42u w=0.52u m=1
M7 N_4 B VDD VDD mp5  l=0.42u w=0.52u m=1
M8 N_4 C VDD VDD mp5  l=0.42u w=0.52u m=1
M9 N_4 D VDD VDD mp5  l=0.42u w=0.52u m=1
M10 Y N_4 VDD VDD mp5  l=0.42u w=0.52u m=1
.ends an04d0


*04 Top of hierarchy  cell=an12d0
.subckt an12d0 B AN GND VDD Y
M1 N_4 AN GND GND mn5  l=0.5u w=0.5u m=1
M2 N_14 N_4 N_2 GND mn5  l=0.5u w=0.5u m=1
M3 N_14 B GND GND mn5  l=0.5u w=0.5u m=1
M4 Y N_2 GND GND mn5  l=0.5u w=0.5u m=1
M5 N_4 AN VDD VDD mp5  l=0.42u w=0.52u m=1
M6 N_2 N_4 VDD VDD mp5  l=0.42u w=0.52u m=1
M7 N_2 B VDD VDD mp5  l=0.42u w=0.52u m=1
M8 Y N_2 VDD VDD mp5  l=0.42u w=0.52u m=1
.ends an12d0

*05 Top of hierarchy  cell=an13d0
.subckt an13d0 C B AN GND VDD Y
M1 Y N_6 GND GND mn5  l=0.5u w=0.5u m=1
M2 N_4 AN GND GND mn5  l=0.5u w=0.5u m=1
M3 N_11 N_4 N_6 GND mn5  l=0.5u w=0.5u m=1
M4 N_11 B N_10 GND mn5  l=0.5u w=0.5u m=1
M5 N_10 C GND GND mn5  l=0.5u w=0.5u m=1
M6 Y N_6 VDD VDD mp5  l=0.42u w=0.52u m=1
M7 N_4 AN VDD VDD mp5  l=0.42u w=0.52u m=1
M8 N_6 N_4 VDD VDD mp5  l=0.42u w=0.52u m=1
M9 N_6 B VDD VDD mp5  l=0.42u w=0.52u m=1
M10 N_6 C VDD VDD mp5  l=0.42u w=0.52u m=1
.ends an13d0

*06 Top of hierarchy  cell=an23d0
.subckt an23d0 C BN AN VDD Y GND
M1 N_4 AN GND GND mn5  l=0.5u w=0.5u m=1
M2 N_3 BN GND GND mn5  l=0.5u w=0.5u m=1
M3 Y N_5 GND GND mn5  l=0.5u w=0.5u m=1
M4 N_11 N_4 N_5 GND mn5  l=0.5u w=0.5u m=1
M5 N_12 N_3 N_11 GND mn5  l=0.5u w=0.5u m=1
M6 N_12 C GND GND mn5  l=0.5u w=0.5u m=1
M7 N_4 AN VDD VDD mp5  l=0.42u w=0.52u m=1
M8 N_3 BN VDD VDD mp5  l=0.42u w=0.52u m=1
M9 Y N_5 VDD VDD mp5  l=0.42u w=0.52u m=1
M10 N_5 N_4 VDD VDD mp5  l=0.42u w=0.52u m=1
M11 N_5 N_3 VDD VDD mp5  l=0.42u w=0.52u m=1
M12 N_5 C VDD VDD mp5  l=0.42u w=0.52u m=1
.ends an23d0

*7 Top of hierarchy  cell=aoi211d0
.subckt aoi211d0 A0 A1 B0 C0 Y VDD GND
M1 Y C0 GND GND mn5  l=0.5u w=0.5u m=1
M2 Y B0 GND GND mn5  l=0.5u w=0.5u m=1
M3 Y A1 N_15 GND mn5  l=0.5u w=0.5u m=1
M4 N_15 A0 GND GND mn5  l=0.5u w=0.5u m=1
M5 Y C0 N_10 VDD mp5  l=0.42u w=0.52u m=1
M6 N_6 B0 N_10 VDD mp5  l=0.42u w=0.52u m=1
M7 N_6 A1 VDD VDD mp5  l=0.42u w=0.52u m=1
M8 N_6 A0 VDD VDD mp5  l=0.42u w=0.52u m=1
.ends aoi211d0

*11 Top of hierarchy  cell=aoi21d0
.subckt aoi21d0 A0 A1 B0 GND Y VDD
M1 Y B0 GND GND mn5  l=0.5u w=0.5u m=1
M2 N_12 A1 Y GND mn5  l=0.5u w=0.5u m=1
M3 N_12 A0 GND GND mn5  l=0.5u w=0.5u m=1
M4 Y B0 N_7 VDD mp5  l=0.42u w=0.52u m=1
M5 N_7 A1 VDD VDD mp5  l=0.42u w=0.52u m=1
M6 N_7 A0 VDD VDD mp5  l=0.42u w=0.52u m=1
.ends aoi21d0

*12 Top of hierarchy  cell=aoi221d0
.subckt aoi221d0 C0 A0 A1 B1 B0 VDD GND Y
M1 N_12 B0 GND GND mn5  l=0.5u w=0.5u m=1
M2 Y B1 N_12 GND mn5  l=0.5u w=0.5u m=1
M3 N_13 A1 Y GND mn5  l=0.5u w=0.5u m=1
M4 N_13 A0 GND GND mn5  l=0.5u w=0.5u m=1
M5 Y C0 GND GND mn5  l=0.5u w=0.5u m=1
M6 Y C0 N_7 VDD mp5  l=0.42u w=0.52u m=1
M7 N_11 B0 VDD VDD mp5  l=0.42u w=0.52u m=1
M8 N_11 B1 VDD VDD mp5  l=0.42u w=0.52u m=1
M9 N_11 A1 N_7 VDD mp5  l=0.42u w=0.52u m=1
M10 N_11 A0 N_7 VDD mp5  l=0.42u w=0.52u m=1
.ends aoi221d0

*13 Top of hierarchy  cell=aoi22d0
.subckt aoi22d0 B0 B1 A1 A0 GND VDD Y
M1 N_11 A0 GND GND mn5  l=0.5u w=0.5u m=1
M2 Y A1 N_11 GND mn5  l=0.5u w=0.5u m=1
M3 Y B1 N_10 GND mn5  l=0.5u w=0.5u m=1
M4 N_10 B0 GND GND mn5  l=0.5u w=0.5u m=1
M5 N_8 A0 VDD VDD mp5  l=0.42u w=0.52u m=1
M6 N_8 A1 VDD VDD mp5  l=0.42u w=0.52u m=1
M7 N_8 B1 Y VDD mp5  l=0.42u w=0.52u m=1
M8 N_8 B0 Y VDD mp5  l=0.42u w=0.52u m=1
.ends aoi22d0

*14 Top of hierarchy  cell=aoi31d0
.subckt aoi31d0 A0 A1 A2 B0 VDD Y GND
M1 Y B0 GND GND mn5  l=0.5u w=0.5u m=1
M2 N_11 A2 Y GND mn5  l=0.5u w=0.5u m=1
M3 N_11 A1 N_10 GND mn5  l=0.5u w=0.5u m=1
M4 N_10 A0 GND GND mn5  l=0.5u w=0.5u m=1
M5 Y B0 N_7 VDD mp5  l=0.42u w=0.52u m=1
M6 N_7 A2 VDD VDD mp5  l=0.42u w=0.52u m=1
M7 N_7 A1 VDD VDD mp5  l=0.42u w=0.52u m=1
M8 N_7 A0 VDD VDD mp5  l=0.42u w=0.52u m=1
.ends aoi31d0

*15 Top of hierarchy  cell=aoi32d0
.subckt aoi32d0 GND Y VDD A1 A0 A2 B1 B0
M1 N_5 B0 GND GND mn5  l=0.5u w=0.5u m=1
M2 Y B1 N_5 GND mn5  l=0.5u w=0.5u m=1
M3 Y A2 N_7 GND mn5  l=0.5u w=0.5u m=1
M4 N_7 A1 N_6 GND mn5  l=0.5u w=0.5u m=1
M5 N_6 A0 GND GND mn5  l=0.5u w=0.5u m=1
M6 N_12 B0 Y VDD mp5  l=0.42u w=0.52u m=1
M7 N_12 B1 Y VDD mp5  l=0.42u w=0.52u m=1
M8 N_12 A2 VDD VDD mp5  l=0.42u w=0.52u m=1
M9 N_12 A1 VDD VDD mp5  l=0.42u w=0.52u m=1
M10 N_12 A0 VDD VDD mp5  l=0.42u w=0.52u m=1
.ends aoi32d0

*16 Top of hierarchy  cell=aoim21d0
.subckt aoim21d0 A1N A0N B0 GND VDD Y
M1 Y B0 GND GND mn5  l=0.5u w=0.5u m=1
M2 Y N_4 GND GND mn5  l=0.5u w=0.5u m=1
M3 N_4 A0N GND GND mn5  l=0.5u w=0.5u m=1
M4 N_4 A1N GND GND mn5  l=0.5u w=0.5u m=1
M5 Y B0 N_13 VDD mp5  l=0.42u w=0.52u m=1
M6 N_13 N_4 VDD VDD mp5  l=0.42u w=0.52u m=1
M7 N_14 A0N VDD VDD mp5  l=0.42u w=0.52u m=1
M8 N_4 A1N N_14 VDD mp5  l=0.42u w=0.52u m=1
.ends aoim21d0

*17 Top of hierarchy  cell=aoim22d0
.subckt aoim22d0 B1 B0 A1N A0N GND VDD Y
M1 N_2 A0N GND GND mn5  l=0.5u w=0.5u m=1
M2 N_2 A1N GND GND mn5  l=0.5u w=0.5u m=1
M3 N_16 B0 Y GND mn5  l=0.5u w=0.5u m=1
M4 N_16 B1 GND GND mn5  l=0.5u w=0.5u m=1
M5 Y N_2 GND GND mn5  l=0.5u w=0.5u m=1
M6 N_11 A0N VDD VDD mp5  l=0.42u w=0.52u m=1
M7 N_2 A1N N_11 VDD mp5  l=0.42u w=0.52u m=1
M8 N_10 B0 VDD VDD mp5  l=0.42u w=0.52u m=1
M9 N_10 B1 VDD VDD mp5  l=0.42u w=0.52u m=1
M10 Y N_2 N_10 VDD mp5  l=0.42u w=0.52u m=1
.ends aoim22d0

*18 Top of hierarchy  cell=aor211d0
.subckt aor211d0 C0 B0 A0 A1 GND Y VDD
M1 N_11 A1 N_2 GND mn5  l=0.5u w=0.5u m=1
M2 N_11 A0 GND GND mn5  l=0.5u w=0.5u m=1
M3 N_2 B0 GND GND mn5  l=0.5u w=0.5u m=1
M4 N_2 C0 GND GND mn5  l=0.5u w=0.5u m=1
M5 Y N_2 GND GND mn5  l=0.5u w=0.5u m=1
M6 N_9 A1 VDD VDD mp5  l=0.42u w=0.52u m=1
M7 N_9 A0 VDD VDD mp5  l=0.42u w=0.52u m=1
M8 N_18 B0 N_9 VDD mp5  l=0.42u w=0.52u m=1
M9 N_2 C0 N_18 VDD mp5  l=0.42u w=0.52u m=1
M10 Y N_2 VDD VDD mp5  l=0.42u w=0.52u m=1
.ends aor211d0

*19 Top of hierarchy  cell=aor21d0
.subckt aor21d0 B0 A1 A0 VDD Y GND
M1 N_10 A0 GND GND mn5  l=0.5u w=0.5u m=1
M2 N_2 A1 N_10 GND mn5  l=0.5u w=0.5u m=1
M3 N_2 B0 GND GND mn5  l=0.5u w=0.5u m=1
M4 Y N_2 GND GND mn5  l=0.5u w=0.5u m=1
M5 N_9 A0 VDD VDD mp5  l=0.42u w=0.52u m=1
M6 N_9 A1 VDD VDD mp5  l=0.42u w=0.52u m=1
M7 N_2 B0 N_9 VDD mp5  l=0.42u w=0.52u m=1
M8 Y N_2 VDD VDD mp5  l=0.42u w=0.52u m=1
.ends aor21d0

*20 Top of hierarchy  cell=aor221d0
.subckt aor221d0 GND Y VDD C0 A0 A1 B1 B0
M1 Y N_4 GND GND mn5  l=0.5u w=0.5u m=1
M2 N_8 B0 GND GND mn5  l=0.5u w=0.5u m=1
M3 N_8 B1 N_4 GND mn5  l=0.5u w=0.5u m=1
M4 N_4 A1 N_7 GND mn5  l=0.5u w=0.5u m=1
M5 N_7 A0 GND GND mn5  l=0.5u w=0.5u m=1
M6 N_4 C0 GND GND mn5  l=0.5u w=0.5u m=1
M7 N_14 A1 N_12 VDD mp5  l=0.42u w=0.52u m=1
M8 N_12 A0 N_14 VDD mp5  l=0.42u w=0.52u m=1
M9 N_12 C0 N_4 VDD mp5  l=0.42u w=0.52u m=1
M10 Y N_4 VDD VDD mp5  l=0.42u w=0.52u m=1
M11 N_14 B0 VDD VDD mp5  l=0.42u w=0.52u m=1
M12 N_14 B1 VDD VDD mp5  l=0.42u w=0.52u m=1
.ends aor221d0

*21 Top of hierarchy  cell=aor22d0
.subckt aor22d0 B0 B1 A1 A0 Y GND VDD
M1 Y N_6 GND GND mn5  l=0.5u w=0.5u m=1
M2 N_11 A0 GND GND mn5  l=0.5u w=0.5u m=1
M3 N_6 A1 N_11 GND mn5  l=0.5u w=0.5u m=1
M4 N_12 B1 N_6 GND mn5  l=0.5u w=0.5u m=1
M5 N_12 B0 GND GND mn5  l=0.5u w=0.5u m=1
M6 Y N_6 VDD VDD mp5  l=0.42u w=0.52u m=1
M7 N_9 A0 VDD VDD mp5  l=0.42u w=0.52u m=1
M8 N_9 A1 VDD VDD mp5  l=0.42u w=0.52u m=1
M9 N_6 B1 N_9 VDD mp5  l=0.42u w=0.52u m=1
M10 N_9 B0 N_6 VDD mp5  l=0.42u w=0.52u m=1
.ends aor22d0


*22 Top of hierarchy  cell=aor311d0
.subckt aor311d0 GND Y VDD A2 A0 A1 B0 C0
M1 N_7 A1 N_4 GND mn5  l=0.5u w=0.5u m=1
M2 N_4 B0 GND GND mn5  l=0.5u w=0.5u m=1
M3 N_4 C0 GND GND mn5  l=0.5u w=0.5u m=1
M4 N_8 A0 N_7 GND mn5  l=0.5u w=0.5u m=1
M5 N_8 A2 GND GND mn5  l=0.5u w=0.5u m=1
M6 Y N_4 GND GND mn5  l=0.5u w=0.5u m=1
M7 N_10 A1 VDD VDD mp5  l=0.42u w=0.52u m=1
M8 N_10 B0 N_15 VDD mp5  l=0.42u w=0.52u m=1
M9 N_15 C0 N_4 VDD mp5  l=0.42u w=0.52u m=1
M10 N_10 A0 VDD VDD mp5  l=0.42u w=0.52u m=1
M11 N_10 A2 VDD VDD mp5  l=0.42u w=0.52u m=1
M12 Y N_4 VDD VDD mp5  l=0.42u w=0.52u m=1
.ends aor311d0


*23 Top of hierarchy  cell=aor31d0
.subckt aor31d0 B0 A2 A1 A0 Y VDD GND
M1 N_11 A0 GND GND mn5  l=0.5u w=0.5u m=1
M2 N_12 A1 N_11 GND mn5  l=0.5u w=0.5u m=1
M3 N_2 A2 N_12 GND mn5  l=0.5u w=0.5u m=1
M4 N_2 B0 GND GND mn5  l=0.5u w=0.5u m=1
M5 Y N_2 GND GND mn5  l=0.5u w=0.5u m=1
M6 N_9 A0 VDD VDD mp5  l=0.42u w=0.52u m=1
M7 N_9 A1 VDD VDD mp5  l=0.42u w=0.52u m=1
M8 N_9 A2 VDD VDD mp5  l=0.42u w=0.52u m=1
M9 N_2 B0 N_9 VDD mp5  l=0.42u w=0.52u m=1
M10 Y N_2 VDD VDD mp5  l=0.42u w=0.52u m=1
.ends aor31d0


*24 Top of hierarchy  cell=buffd0
.subckt buffd0 VDD Y GND A
M1 Y N_4 GND GND mn5  l=0.5u w=0.5u m=1
M2 N_4 A GND GND mn5  l=0.5u w=0.5u m=1
M3 Y N_4 VDD VDD mp5  l=0.42u w=0.52u m=1
M4 N_4 A VDD VDD mp5  l=0.42u w=0.52u m=1
.ends buffd0

*25 Top of hierarchy  cell=buffd1
.subckt buffd1 VDD Y GND A
M1 Y N_4 GND GND mn5  l=0.5u w=0.58u m=1
M2 N_4 A GND GND mn5  l=0.5u w=0.5u m=1
M3 Y N_4 VDD VDD mp5  l=0.42u w=0.76u m=1
M4 N_4 A VDD VDD mp5  l=0.42u w=0.52u m=1
.ends buffd1


*26 Top of hierarchy  cell=buffd2
.subckt buffd2 VDD Y GND A
M1 Y N_4 GND GND mn5  l=0.5u w=0.72u m=1
M2 N_4 A GND GND mn5  l=0.5u w=0.58u m=1
M3 Y N_4 VDD VDD mp5  l=0.42u w=0.96u m=1
M4 N_4 A VDD VDD mp5  l=0.42u w=0.76u m=1
.ends buffd2


*27 Top of hierarchy  cell=buffd3
.subckt buffd3 VDD Y GND A
M1 Y N_4 GND GND mn5  l=0.5u w=0.74u m=1
M2 Y N_4 GND GND mn5  l=0.5u w=0.34u m=1
M3 N_4 A GND GND mn5  l=0.5u w=0.58u m=1
M4 Y N_4 VDD VDD mp5  l=0.42u w=0.72u m=1
M5 Y N_4 VDD VDD mp5  l=0.42u w=0.72u m=1
M6 N_4 A VDD VDD mp5  l=0.42u w=0.76u m=1
.ends buffd3


*28 Top of hierarchy  cell=dfbfb1
.subckt dfbfb1 VDD QN Q GND RN SN CKN D
M1 N_4 N_6 GND GND mn5  l=0.5u w=0.5u m=1
M2 N_26 D GND GND mn5  l=0.5u w=0.5u m=1
M3 N_26 N_4 N_5 GND mn5  l=0.5u w=0.5u m=1
M4 N_27 N_6 N_5 GND mn5  l=0.5u w=0.5u m=1
M5 N_27 N_7 GND GND mn5  l=0.5u w=0.5u m=1
M6 N_6 CKN GND GND mn5  l=0.5u w=0.5u m=1
M7 N_23 N_5 N_7 GND mn5  l=0.5u w=0.5u m=1
M8 N_23 N_10 N_7 GND mn5  l=0.5u w=0.5u m=1
M9 N_23 SN GND GND mn5  l=0.5u w=0.5u m=1
M10 N_28 N_7 GND GND mn5  l=0.5u w=0.5u m=1
M11 N_8 N_6 N_28 GND mn5  l=0.5u w=0.5u m=1
M12 N_29 N_4 N_8 GND mn5  l=0.5u w=0.5u m=1
M13 N_29 N_9 GND GND mn5  l=0.5u w=0.5u m=1
M14 N_21 SN GND GND mn5  l=0.5u w=0.5u m=1
M15 N_9 N_10 N_21 GND mn5  l=0.5u w=0.5u m=1
M16 N_21 N_8 N_9 GND mn5  l=0.5u w=0.5u m=1
M17 QN N_9 GND GND mn5  l=0.5u w=0.58u m=1
M18 N_10 RN GND GND mn5  l=0.5u w=0.5u m=1
M19 N_11 N_9 GND GND mn5  l=0.5u w=0.5u m=1
M20 Q N_11 GND GND mn5  l=0.5u w=0.58u m=1
M21 N_4 N_6 VDD VDD mp5  l=0.42u w=0.52u m=1
M22 N_14 D VDD VDD mp5  l=0.42u w=0.52u m=1
M23 N_14 N_6 N_5 VDD mp5  l=0.42u w=0.52u m=1
M24 N_15 N_4 N_5 VDD mp5  l=0.42u w=0.5u m=1
M25 N_15 N_7 VDD VDD mp5  l=0.42u w=0.5u m=1
M26 N_6 CKN VDD VDD mp5  l=0.42u w=0.5u m=1
M27 N_16 N_5 VDD VDD mp5  l=0.42u w=0.52u m=1
M28 N_16 N_10 N_7 VDD mp5  l=0.42u w=0.52u m=1
M29 N_7 SN VDD VDD mp5  l=0.42u w=0.52u m=1
M30 N_17 N_7 VDD VDD mp5  l=0.42u w=0.52u m=1
M31 N_8 N_4 N_17 VDD mp5  l=0.42u w=0.52u m=1
M32 N_18 N_6 N_8 VDD mp5  l=0.42u w=0.5u m=1
M33 N_18 N_9 VDD VDD mp5  l=0.42u w=0.5u m=1
M34 N_9 SN VDD VDD mp5  l=0.42u w=0.52u m=1
M35 N_19 N_10 N_9 VDD mp5  l=0.42u w=0.52u m=1
M36 N_19 N_8 VDD VDD mp5  l=0.42u w=0.52u m=1
M37 QN N_9 VDD VDD mp5  l=0.42u w=0.76u m=1
M38 N_10 RN VDD VDD mp5  l=0.42u w=0.52u m=1
M39 N_11 N_9 VDD VDD mp5  l=0.42u w=0.52u m=1
M40 Q N_11 VDD VDD mp5  l=0.42u w=0.76u m=1
.ends dfbfb1


*29 Top of hierarchy  cell=dfcfb1
.subckt dfcfb1 GND QN Q VDD RN D CKN
M1 N_4 CKN GND GND mn5  l=0.5u w=0.5u m=1
M2 N_5 N_4 GND GND mn5  l=0.5u w=0.5u m=1
M3 N_14 D GND GND mn5  l=0.5u w=0.5u m=1
M4 N_14 N_5 N_6 GND mn5  l=0.5u w=0.5u m=1
M5 N_15 N_4 N_6 GND mn5  l=0.5u w=0.5u m=1
M6 N_15 N_7 GND GND mn5  l=0.5u w=0.5u m=1
M7 N_7 N_6 GND GND mn5  l=0.5u w=0.5u m=1
M8 N_7 N_10 GND GND mn5  l=0.5u w=0.5u m=1
M9 N_16 N_7 GND GND mn5  l=0.5u w=0.5u m=1
M10 N_8 N_4 N_16 GND mn5  l=0.5u w=0.5u m=1
M11 N_17 N_5 N_8 GND mn5  l=0.5u w=0.5u m=1
M12 N_17 N_9 GND GND mn5  l=0.5u w=0.5u m=1
M13 N_9 N_8 GND GND mn5  l=0.5u w=0.5u m=1
M14 N_9 N_10 GND GND mn5  l=0.5u w=0.5u m=1
M15 N_10 RN GND GND mn5  l=0.5u w=0.5u m=1
M16 N_11 N_9 GND GND mn5  l=0.5u w=0.5u m=1
M17 Q N_11 GND GND mn5  l=0.5u w=0.58u m=1
M18 QN N_9 GND GND mn5  l=0.5u w=0.58u m=1
M19 N_4 CKN VDD VDD mp5  l=0.42u w=0.5u m=1
M20 N_5 N_4 VDD VDD mp5  l=0.42u w=0.52u m=1
M21 N_21 D VDD VDD mp5  l=0.42u w=0.52u m=1
M22 N_22 N_5 N_6 VDD mp5  l=0.42u w=0.5u m=1
M23 N_21 N_4 N_6 VDD mp5  l=0.42u w=0.52u m=1
M24 N_22 N_7 VDD VDD mp5  l=0.42u w=0.5u m=1
M25 N_23 N_6 VDD VDD mp5  l=0.42u w=0.52u m=1
M26 N_23 N_10 N_7 VDD mp5  l=0.42u w=0.52u m=1
M27 N_24 N_7 VDD VDD mp5  l=0.42u w=0.52u m=1
M28 N_24 N_5 N_8 VDD mp5  l=0.42u w=0.52u m=1
M29 N_25 N_4 N_8 VDD mp5  l=0.42u w=0.5u m=1
M30 N_25 N_9 VDD VDD mp5  l=0.42u w=0.5u m=1
M31 N_26 N_8 VDD VDD mp5  l=0.42u w=0.52u m=1
M32 N_26 N_10 N_9 VDD mp5  l=0.42u w=0.52u m=1
M33 N_10 RN VDD VDD mp5  l=0.42u w=0.52u m=1
M34 N_11 N_9 VDD VDD mp5  l=0.42u w=0.52u m=1
M35 Q N_11 VDD VDD mp5  l=0.42u w=0.76u m=1
M36 QN N_9 VDD VDD mp5  l=0.42u w=0.76u m=1
.ends dfcfb1

*30 Top of hierarchy  cell=dfcfq1
.subckt dfcfq1 GND Q VDD CKN D RN
M1 N_9 N_8 GND GND mn5  l=0.5u w=0.5u m=1
M2 N_16 N_9 GND GND mn5  l=0.5u w=0.5u m=1
M3 Q N_11 GND GND mn5  l=0.5u w=0.58u m=1
M4 N_10 RN GND GND mn5  l=0.5u w=0.5u m=1
M5 N_9 N_10 GND GND mn5  l=0.5u w=0.5u m=1
M6 N_11 N_9 GND GND mn5  l=0.5u w=0.5u m=1
M7 N_16 N_5 N_8 GND mn5  l=0.5u w=0.5u m=1
M8 N_8 N_4 N_15 GND mn5  l=0.5u w=0.5u m=1
M9 N_15 N_7 GND GND mn5  l=0.5u w=0.5u m=1
M10 N_7 N_10 GND GND mn5  l=0.5u w=0.5u m=1
M11 N_7 N_6 GND GND mn5  l=0.5u w=0.5u m=1
M12 N_14 N_7 GND GND mn5  l=0.5u w=0.5u m=1
M13 N_14 N_4 N_6 GND mn5  l=0.5u w=0.5u m=1
M14 N_13 N_5 N_6 GND mn5  l=0.5u w=0.5u m=1
M15 N_13 D GND GND mn5  l=0.5u w=0.5u m=1
M16 N_5 N_4 GND GND mn5  l=0.5u w=0.5u m=1
M17 N_4 CKN GND GND mn5  l=0.5u w=0.5u m=1
M18 N_25 N_8 VDD VDD mp5  l=0.42u w=0.52u m=1
M19 N_24 N_9 VDD VDD mp5  l=0.42u w=0.5u m=1
M20 Q N_11 VDD VDD mp5  l=0.42u w=0.76u m=1
M21 N_24 N_4 N_8 VDD mp5  l=0.42u w=0.5u m=1
M22 N_10 RN VDD VDD mp5  l=0.42u w=0.52u m=1
M23 N_25 N_10 N_9 VDD mp5  l=0.42u w=0.52u m=1
M24 N_11 N_9 VDD VDD mp5  l=0.42u w=0.52u m=1
M25 N_23 N_5 N_8 VDD mp5  l=0.42u w=0.52u m=1
M26 N_23 N_7 VDD VDD mp5  l=0.42u w=0.52u m=1
M27 N_22 N_10 N_7 VDD mp5  l=0.42u w=0.52u m=1
M28 N_22 N_6 VDD VDD mp5  l=0.42u w=0.52u m=1
M29 N_21 N_7 VDD VDD mp5  l=0.42u w=0.5u m=1
M30 N_20 N_4 N_6 VDD mp5  l=0.42u w=0.52u m=1
M31 N_21 N_5 N_6 VDD mp5  l=0.42u w=0.5u m=1
M32 N_20 D VDD VDD mp5  l=0.42u w=0.52u m=1
M33 N_5 N_4 VDD VDD mp5  l=0.42u w=0.52u m=1
M34 N_4 CKN VDD VDD mp5  l=0.42u w=0.5u m=1
.ends dfcfq1


*31 Top of hierarchy  cell=dfcrb1
.subckt dfcrb1 VDD QN Q GND CK D RN
M1 QN N_9 GND GND mn5  l=0.5u w=0.58u m=1
M2 Q N_11 GND GND mn5  l=0.5u w=0.58u m=1
M3 N_11 N_9 GND GND mn5  l=0.5u w=0.5u m=1
M4 N_10 RN GND GND mn5  l=0.5u w=0.5u m=1
M5 N_9 N_10 GND GND mn5  l=0.5u w=0.5u m=1
M6 N_9 N_8 GND GND mn5  l=0.5u w=0.5u m=1
M7 N_26 N_9 GND GND mn5  l=0.5u w=0.5u m=1
M8 N_26 N_5 N_8 GND mn5  l=0.5u w=0.5u m=1
M9 N_8 N_4 N_25 GND mn5  l=0.5u w=0.5u m=1
M10 N_25 N_7 GND GND mn5  l=0.5u w=0.5u m=1
M11 N_7 N_10 GND GND mn5  l=0.5u w=0.5u m=1
M12 N_7 N_6 GND GND mn5  l=0.5u w=0.5u m=1
M13 N_24 N_7 GND GND mn5  l=0.5u w=0.5u m=1
M14 N_24 N_4 N_6 GND mn5  l=0.5u w=0.5u m=1
M15 N_23 N_5 N_6 GND mn5  l=0.5u w=0.5u m=1
M16 N_23 D GND GND mn5  l=0.5u w=0.5u m=1
M17 N_4 N_5 GND GND mn5  l=0.5u w=0.5u m=1
M18 N_5 CK GND GND mn5  l=0.5u w=0.5u m=1
M19 QN N_9 VDD VDD mp5  l=0.42u w=0.76u m=1
M20 Q N_11 VDD VDD mp5  l=0.42u w=0.76u m=1
M21 N_11 N_9 VDD VDD mp5  l=0.42u w=0.52u m=1
M22 N_10 RN VDD VDD mp5  l=0.42u w=0.52u m=1
M23 N_19 N_10 N_9 VDD mp5  l=0.42u w=0.52u m=1
M24 N_19 N_8 VDD VDD mp5  l=0.42u w=0.52u m=1
M25 N_18 N_9 VDD VDD mp5  l=0.42u w=0.5u m=1
M26 N_18 N_4 N_8 VDD mp5  l=0.42u w=0.5u m=1
M27 N_17 N_5 N_8 VDD mp5  l=0.42u w=0.52u m=1
M28 N_17 N_7 VDD VDD mp5  l=0.42u w=0.52u m=1
M29 N_16 N_10 N_7 VDD mp5  l=0.42u w=0.52u m=1
M30 N_16 N_6 VDD VDD mp5  l=0.42u w=0.52u m=1
M31 N_15 N_7 VDD VDD mp5  l=0.42u w=0.5u m=1
M32 N_14 N_4 N_6 VDD mp5  l=0.42u w=0.52u m=1
M33 N_15 N_5 N_6 VDD mp5  l=0.42u w=0.5u m=1
M34 N_14 D VDD VDD mp5  l=0.42u w=0.52u m=1
M35 N_4 N_5 VDD VDD mp5  l=0.42u w=0.52u m=1
M36 N_5 CK VDD VDD mp5  l=0.42u w=0.5u m=1
.ends dfcrb1


*32 Top of hierarchy  cell=dfcrn1
.subckt dfcrn1 VDD QN GND CK D RN
M1 QN N_9 GND GND mn5  l=0.5u w=0.58u m=1
M2 N_10 RN GND GND mn5  l=0.5u w=0.5u m=1
M3 N_9 N_10 GND GND mn5  l=0.5u w=0.5u m=1
M4 N_9 N_8 GND GND mn5  l=0.5u w=0.5u m=1
M5 N_34 N_9 GND GND mn5  l=0.5u w=0.5u m=1
M6 N_34 N_5 N_8 GND mn5  l=0.5u w=0.5u m=1
M7 N_8 N_4 N_33 GND mn5  l=0.5u w=0.5u m=1
M8 N_33 N_7 GND GND mn5  l=0.5u w=0.5u m=1
M9 N_7 N_10 GND GND mn5  l=0.5u w=0.5u m=1
M10 N_7 N_6 GND GND mn5  l=0.5u w=0.5u m=1
M11 N_32 N_7 GND GND mn5  l=0.5u w=0.5u m=1
M12 N_32 N_4 N_6 GND mn5  l=0.5u w=0.5u m=1
M13 N_31 N_5 N_6 GND mn5  l=0.5u w=0.5u m=1
M14 N_31 D GND GND mn5  l=0.5u w=0.5u m=1
M15 N_4 N_5 GND GND mn5  l=0.5u w=0.5u m=1
M16 N_5 CK GND GND mn5  l=0.5u w=0.5u m=1
M17 QN N_9 VDD VDD mp5  l=0.42u w=0.76u m=1
M18 N_10 RN VDD VDD mp5  l=0.42u w=0.52u m=1
M19 N_17 N_10 N_9 VDD mp5  l=0.42u w=0.52u m=1
M20 N_17 N_8 VDD VDD mp5  l=0.42u w=0.52u m=1
M21 N_16 N_9 VDD VDD mp5  l=0.42u w=0.5u m=1
M22 N_16 N_4 N_8 VDD mp5  l=0.42u w=0.5u m=1
M23 N_15 N_5 N_8 VDD mp5  l=0.42u w=0.52u m=1
M24 N_15 N_7 VDD VDD mp5  l=0.42u w=0.52u m=1
M25 N_14 N_10 N_7 VDD mp5  l=0.42u w=0.52u m=1
M26 N_14 N_6 VDD VDD mp5  l=0.42u w=0.52u m=1
M27 N_13 N_7 VDD VDD mp5  l=0.42u w=0.5u m=1
M28 N_12 N_4 N_6 VDD mp5  l=0.42u w=0.52u m=1
M29 N_13 N_5 N_6 VDD mp5  l=0.42u w=0.5u m=1
M30 N_12 D VDD VDD mp5  l=0.42u w=0.52u m=1
M31 N_4 N_5 VDD VDD mp5  l=0.42u w=0.52u m=1
M32 N_5 CK VDD VDD mp5  l=0.42u w=0.5u m=1
.ends dfcrn1


*33 Top of hierarchy  cell=dfcrq1
.subckt dfcrq1 VDD Q GND CK D RN
M1 N_3 RN GND GND mn5  l=0.5u w=0.5u m=1
M2 Q N_8 GND GND mn5  l=0.5u w=0.58u m=1
M3 Q N_3 GND GND mn5  l=0.5u w=0.58u m=1
M4 N_9 N_3 GND GND mn5  l=0.5u w=0.5u m=1
M5 N_9 N_8 GND GND mn5  l=0.5u w=0.5u m=1
M6 N_35 N_9 GND GND mn5  l=0.5u w=0.5u m=1
M7 N_35 N_5 N_8 GND mn5  l=0.5u w=0.5u m=1
M8 N_8 N_4 N_34 GND mn5  l=0.5u w=0.5u m=1
M9 N_34 N_7 GND GND mn5  l=0.5u w=0.5u m=1
M10 N_7 N_3 GND GND mn5  l=0.5u w=0.5u m=1
M11 N_7 N_6 GND GND mn5  l=0.5u w=0.5u m=1
M12 N_33 N_7 GND GND mn5  l=0.5u w=0.5u m=1
M13 N_33 N_4 N_6 GND mn5  l=0.5u w=0.5u m=1
M14 N_32 N_5 N_6 GND mn5  l=0.5u w=0.5u m=1
M15 N_32 D GND GND mn5  l=0.5u w=0.5u m=1
M16 N_4 N_5 GND GND mn5  l=0.5u w=0.5u m=1
M17 N_5 CK GND GND mn5  l=0.5u w=0.5u m=1
M18 N_3 RN VDD VDD mp5  l=0.42u w=0.52u m=1
M19 N_18 N_8 VDD VDD mp5  l=0.42u w=0.76u m=1
M20 N_17 N_3 N_9 VDD mp5  l=0.42u w=0.52u m=1
M21 N_18 N_3 Q VDD mp5  l=0.42u w=0.76u m=1
M22 N_17 N_8 VDD VDD mp5  l=0.42u w=0.52u m=1
M23 N_16 N_9 VDD VDD mp5  l=0.42u w=0.5u m=1
M24 N_16 N_4 N_8 VDD mp5  l=0.42u w=0.5u m=1
M25 N_15 N_5 N_8 VDD mp5  l=0.42u w=0.52u m=1
M26 N_15 N_7 VDD VDD mp5  l=0.42u w=0.52u m=1
M27 N_14 N_3 N_7 VDD mp5  l=0.42u w=0.52u m=1
M28 N_14 N_6 VDD VDD mp5  l=0.42u w=0.52u m=1
M29 N_13 N_7 VDD VDD mp5  l=0.42u w=0.5u m=1
M30 N_12 N_4 N_6 VDD mp5  l=0.42u w=0.52u m=1
M31 N_13 N_5 N_6 VDD mp5  l=0.42u w=0.5u m=1
M32 N_12 D VDD VDD mp5  l=0.42u w=0.52u m=1
M33 N_4 N_5 VDD VDD mp5  l=0.42u w=0.52u m=1
M34 N_5 CK VDD VDD mp5  l=0.42u w=0.5u m=1
.ends dfcrq1

*34 Top of hierarchy  cell=dfnfb1
.subckt dfnfb1 VDD QN Q GND D CKN
M1 QN N_9 GND GND mn5  l=0.5u w=0.58u m=1
M2 Q N_8 GND GND mn5  l=0.5u w=0.58u m=1
M3 N_9 N_8 GND GND mn5  l=0.5u w=0.5u m=1
M4 N_31 N_9 GND GND mn5  l=0.5u w=0.5u m=1
M5 N_30 N_4 N_8 GND mn5  l=0.5u w=0.5u m=1
M6 N_30 N_7 GND GND mn5  l=0.5u w=0.5u m=1
M7 N_7 N_6 GND GND mn5  l=0.5u w=0.5u m=1
M8 N_29 N_7 GND GND mn5  l=0.5u w=0.5u m=1
M9 N_29 N_4 N_6 GND mn5  l=0.5u w=0.5u m=1
M10 N_6 N_5 N_28 GND mn5  l=0.5u w=0.5u m=1
M11 N_28 D GND GND mn5  l=0.5u w=0.5u m=1
M12 N_31 N_5 N_8 GND mn5  l=0.5u w=0.5u m=1
M13 N_5 N_4 GND GND mn5  l=0.5u w=0.5u m=1
M14 N_4 CKN GND GND mn5  l=0.5u w=0.5u m=1
M15 QN N_9 VDD VDD mp5  l=0.42u w=0.76u m=1
M16 Q N_8 VDD VDD mp5  l=0.42u w=0.76u m=1
M17 N_9 N_8 VDD VDD mp5  l=0.42u w=0.52u m=1
M18 N_15 N_9 VDD VDD mp5  l=0.42u w=0.5u m=1
M19 N_15 N_4 N_8 VDD mp5  l=0.42u w=0.5u m=1
M20 N_14 N_7 VDD VDD mp5  l=0.42u w=0.52u m=1
M21 N_7 N_6 VDD VDD mp5  l=0.42u w=0.52u m=1
M22 N_13 N_7 VDD VDD mp5  l=0.42u w=0.5u m=1
M23 N_13 N_5 N_6 VDD mp5  l=0.42u w=0.5u m=1
M24 N_12 N_4 N_6 VDD mp5  l=0.42u w=0.52u m=1
M25 N_12 D VDD VDD mp5  l=0.42u w=0.52u m=1
M26 N_14 N_5 N_8 VDD mp5  l=0.42u w=0.52u m=1
M27 N_5 N_4 VDD VDD mp5  l=0.42u w=0.52u m=1
M28 N_4 CKN VDD VDD mp5  l=0.42u w=0.5u m=1
.ends dfnfb1

*35 Top of hierarchy  cell=dfnrb1
.subckt dfnrb1 VDD QN Q GND CK D
M1 QN N_10 GND GND mn5  l=0.5u w=0.58u m=1
M2 Q N_8 GND GND mn5  l=0.5u w=0.58u m=1
M3 N_10 N_8 GND GND mn5  l=0.5u w=0.5u m=1
M4 N_32 N_10 GND GND mn5  l=0.5u w=0.5u m=1
M5 N_32 N_4 N_8 GND mn5  l=0.5u w=0.5u m=1
M6 N_31 N_5 N_8 GND mn5  l=0.5u w=0.5u m=1
M7 N_31 N_7 GND GND mn5  l=0.5u w=0.5u m=1
M8 N_7 N_6 GND GND mn5  l=0.5u w=0.5u m=1
M9 N_30 N_7 GND GND mn5  l=0.5u w=0.5u m=1
M10 N_30 N_5 N_6 GND mn5  l=0.5u w=0.5u m=1
M11 N_6 N_4 N_29 GND mn5  l=0.5u w=0.5u m=1
M12 N_29 D GND GND mn5  l=0.5u w=0.5u m=1
M13 N_5 N_4 GND GND mn5  l=0.5u w=0.5u m=1
M14 N_4 CK GND GND mn5  l=0.5u w=0.5u m=1
M15 QN N_10 VDD VDD mp5  l=0.42u w=0.76u m=1
M16 Q N_8 VDD VDD mp5  l=0.42u w=0.76u m=1
M17 N_10 N_8 VDD VDD mp5  l=0.42u w=0.52u m=1
M18 VDD N_10 N_16 VDD mp5  l=0.42u w=0.5u m=1
M19 N_15 N_4 N_8 VDD mp5  l=0.42u w=0.52u m=1
M20 N_16 N_5 N_8 VDD mp5  l=0.42u w=0.5u m=1
M21 N_15 N_7 VDD VDD mp5  l=0.42u w=0.52u m=1
M22 N_7 N_6 VDD VDD mp5  l=0.42u w=0.52u m=1
M23 N_14 N_7 VDD VDD mp5  l=0.42u w=0.5u m=1
M24 N_14 N_4 N_6 VDD mp5  l=0.42u w=0.5u m=1
M25 N_13 N_5 N_6 VDD mp5  l=0.42u w=0.52u m=1
M26 N_13 D VDD VDD mp5  l=0.42u w=0.52u m=1
M27 N_5 N_4 VDD VDD mp5  l=0.42u w=0.52u m=1
M28 N_4 CK VDD VDD mp5  l=0.42u w=0.52u m=1
.ends dfnrb1

*36 Top of hierarchy  cell=dfnrn1
.subckt dfnrn1 VDD QN GND CK D
M1 QN N_9 GND GND mn5  l=0.5u w=0.58u m=1
M2 N_9 N_8 GND GND mn5  l=0.5u w=0.5u m=1
M3 N_29 N_9 GND GND mn5  l=0.5u w=0.5u m=1
M4 N_28 N_5 N_8 GND mn5  l=0.5u w=0.5u m=1
M5 N_28 N_7 GND GND mn5  l=0.5u w=0.5u m=1
M6 N_7 N_6 GND GND mn5  l=0.5u w=0.5u m=1
M7 N_27 N_7 GND GND mn5  l=0.5u w=0.5u m=1
M8 N_27 N_5 N_6 GND mn5  l=0.5u w=0.5u m=1
M9 N_6 N_4 N_26 GND mn5  l=0.5u w=0.5u m=1
M10 N_26 D GND GND mn5  l=0.5u w=0.5u m=1
M11 N_29 N_4 N_8 GND mn5  l=0.5u w=0.5u m=1
M12 N_5 N_4 GND GND mn5  l=0.5u w=0.5u m=1
M13 N_4 CK GND GND mn5  l=0.5u w=0.5u m=1
M14 QN N_9 VDD VDD mp5  l=0.42u w=0.76u m=1
M15 N_9 N_8 VDD VDD mp5  l=0.42u w=0.52u m=1
M16 N_14 N_9 VDD VDD mp5  l=0.42u w=0.5u m=1
M17 N_14 N_5 N_8 VDD mp5  l=0.42u w=0.5u m=1
M18 N_13 N_7 VDD VDD mp5  l=0.42u w=0.52u m=1
M19 N_7 N_6 VDD VDD mp5  l=0.42u w=0.52u m=1
M20 N_12 N_7 VDD VDD mp5  l=0.42u w=0.5u m=1
M21 N_12 N_4 N_6 VDD mp5  l=0.42u w=0.5u m=1
M22 N_11 N_5 N_6 VDD mp5  l=0.42u w=0.52u m=1
M23 N_11 D VDD VDD mp5  l=0.42u w=0.52u m=1
M24 N_13 N_4 N_8 VDD mp5  l=0.42u w=0.52u m=1
M25 N_5 N_4 VDD VDD mp5  l=0.42u w=0.5u m=1
M26 N_4 CK VDD VDD mp5  l=0.42u w=0.5u m=1
.ends dfnrn1


*37 Top of hierarchy  cell=dfnrq1
.subckt dfnrq1 VDD Q GND CK D
M1 Q N_8 GND GND mn5  l=0.5u w=0.58u m=1
M2 N_9 N_8 GND GND mn5  l=0.5u w=0.5u m=1
M3 N_29 N_9 GND GND mn5  l=0.5u w=0.5u m=1
M4 N_28 N_5 N_8 GND mn5  l=0.5u w=0.5u m=1
M5 N_28 N_7 GND GND mn5  l=0.5u w=0.5u m=1
M6 N_7 N_6 GND GND mn5  l=0.5u w=0.5u m=1
M7 N_27 N_7 GND GND mn5  l=0.5u w=0.5u m=1
M8 N_27 N_5 N_6 GND mn5  l=0.5u w=0.5u m=1
M9 N_6 N_4 N_26 GND mn5  l=0.5u w=0.5u m=1
M10 N_26 D GND GND mn5  l=0.5u w=0.5u m=1
M11 N_29 N_4 N_8 GND mn5  l=0.5u w=0.5u m=1
M12 N_5 N_4 GND GND mn5  l=0.5u w=0.5u m=1
M13 N_4 CK GND GND mn5  l=0.5u w=0.5u m=1
M14 Q N_8 VDD VDD mp5  l=0.42u w=0.76u m=1
M15 N_9 N_8 VDD VDD mp5  l=0.42u w=0.52u m=1
M16 N_14 N_9 VDD VDD mp5  l=0.42u w=0.5u m=1
M17 N_14 N_5 N_8 VDD mp5  l=0.42u w=0.5u m=1
M18 N_13 N_7 VDD VDD mp5  l=0.42u w=0.52u m=1
M19 N_7 N_6 VDD VDD mp5  l=0.42u w=0.52u m=1
M20 N_12 N_7 VDD VDD mp5  l=0.42u w=0.5u m=1
M21 N_12 N_4 N_6 VDD mp5  l=0.42u w=0.5u m=1
M22 N_11 N_5 N_6 VDD mp5  l=0.42u w=0.52u m=1
M23 N_11 D VDD VDD mp5  l=0.42u w=0.52u m=1
M24 N_13 N_4 N_8 VDD mp5  l=0.42u w=0.52u m=1
M25 N_5 N_4 VDD VDD mp5  l=0.42u w=0.5u m=1
M26 N_4 CK VDD VDD mp5  l=0.42u w=0.5u m=1
.ends dfnrq1


*38 Top of hierarchy  cell=dfpfb1
.subckt dfpfb1 VDD Q QN GND CKN D SN
M1 Q N_11 GND GND mn5  l=0.5u w=0.58u m=1
M2 QN N_9 GND GND mn5  l=0.5u w=0.58u m=1
M3 N_11 N_9 GND GND mn5  l=0.5u w=0.5u m=1
M4 N_36 N_8 N_9 GND mn5  l=0.5u w=0.5u m=1
M5 N_36 SN GND GND mn5  l=0.5u w=0.5u m=1
M6 N_35 N_9 GND GND mn5  l=0.5u w=0.5u m=1
M7 N_35 N_5 N_8 GND mn5  l=0.5u w=0.5u m=1
M8 N_8 N_4 N_34 GND mn5  l=0.5u w=0.5u m=1
M9 N_34 N_7 GND GND mn5  l=0.5u w=0.5u m=1
M10 N_33 SN N_7 GND mn5  l=0.5u w=0.5u m=1
M11 N_33 N_6 GND GND mn5  l=0.5u w=0.5u m=1
M12 N_32 N_7 GND GND mn5  l=0.5u w=0.5u m=1
M13 N_32 N_4 N_6 GND mn5  l=0.5u w=0.5u m=1
M14 N_31 N_5 N_6 GND mn5  l=0.5u w=0.5u m=1
M15 N_31 D GND GND mn5  l=0.5u w=0.5u m=1
M16 N_5 N_4 GND GND mn5  l=0.5u w=0.5u m=1
M17 N_4 CKN GND GND mn5  l=0.5u w=0.5u m=1
M18 Q N_11 VDD VDD mp5  l=0.42u w=0.76u m=1
M19 QN N_9 VDD VDD mp5  l=0.42u w=0.76u m=1
M20 N_11 N_9 VDD VDD mp5  l=0.42u w=0.52u m=1
M21 N_9 N_8 VDD VDD mp5  l=0.42u w=0.52u m=1
M22 N_9 SN VDD VDD mp5  l=0.42u w=0.52u m=1
M23 N_16 N_9 VDD VDD mp5  l=0.42u w=0.5u m=1
M24 N_16 N_4 N_8 VDD mp5  l=0.42u w=0.5u m=1
M25 N_15 N_5 N_8 VDD mp5  l=0.42u w=0.52u m=1
M26 N_15 N_7 VDD VDD mp5  l=0.42u w=0.52u m=1
M27 N_7 SN VDD VDD mp5  l=0.42u w=0.52u m=1
M28 N_7 N_6 VDD VDD mp5  l=0.42u w=0.52u m=1
M29 N_14 N_7 VDD VDD mp5  l=0.42u w=0.5u m=1
M30 N_13 N_4 N_6 VDD mp5  l=0.42u w=0.52u m=1
M31 N_14 N_5 N_6 VDD mp5  l=0.42u w=0.5u m=1
M32 N_13 D VDD VDD mp5  l=0.42u w=0.52u m=1
M33 N_5 N_4 VDD VDD mp5  l=0.42u w=0.5u m=1
M34 N_4 CKN VDD VDD mp5  l=0.42u w=0.5u m=1
.ends dfpfb1


*39 Top of hierarchy  cell=dfprb1
.subckt dfprb1 VDD Q QN GND SN D CK
M1 N_4 N_12 GND GND mn5  l=0.5u w=0.5u m=1
M2 N_33 D GND GND mn5  l=0.5u w=0.5u m=1
M3 N_33 N_12 N_5 GND mn5  l=0.5u w=0.5u m=1
M4 N_34 N_4 N_5 GND mn5  l=0.5u w=0.5u m=1
M5 N_34 N_6 GND GND mn5  l=0.5u w=0.5u m=1
M6 Q N_10 GND GND mn5  l=0.5u w=0.58u m=1
M7 QN N_8 GND GND mn5  l=0.5u w=0.58u m=1
M8 N_10 N_8 GND GND mn5  l=0.5u w=0.5u m=1
M9 N_35 N_5 GND GND mn5  l=0.5u w=0.5u m=1
M10 N_35 SN N_6 GND mn5  l=0.5u w=0.5u m=1
M11 N_38 N_7 N_8 GND mn5  l=0.5u w=0.5u m=1
M12 N_36 N_6 GND GND mn5  l=0.5u w=0.5u m=1
M13 N_7 N_4 N_36 GND mn5  l=0.5u w=0.5u m=1
M14 N_37 N_12 N_7 GND mn5  l=0.5u w=0.5u m=1
M15 N_37 N_8 GND GND mn5  l=0.5u w=0.5u m=1
M16 N_38 SN GND GND mn5  l=0.5u w=0.5u m=1
M17 N_12 CK GND GND mn5  l=0.5u w=0.5u m=1
M18 N_4 N_12 VDD VDD mp5  l=0.42u w=0.5u m=1
M19 N_14 D VDD VDD mp5  l=0.42u w=0.52u m=1
M20 N_15 N_12 N_5 VDD mp5  l=0.42u w=0.5u m=1
M21 N_14 N_4 N_5 VDD mp5  l=0.42u w=0.52u m=1
M22 N_15 N_6 VDD VDD mp5  l=0.42u w=0.5u m=1
M23 Q N_10 VDD VDD mp5  l=0.42u w=0.76u m=1
M24 QN N_8 VDD VDD mp5  l=0.42u w=0.76u m=1
M25 N_10 N_8 VDD VDD mp5  l=0.42u w=0.52u m=1
M26 N_6 N_5 VDD VDD mp5  l=0.42u w=0.5u m=1
M27 N_6 SN VDD VDD mp5  l=0.42u w=0.5u m=1
M28 N_8 N_7 VDD VDD mp5  l=0.42u w=0.52u m=1
M29 N_16 N_6 VDD VDD mp5  l=0.42u w=0.52u m=1
M30 N_16 N_12 N_7 VDD mp5  l=0.42u w=0.52u m=1
M31 N_17 N_4 N_7 VDD mp5  l=0.42u w=0.5u m=1
M32 N_17 N_8 VDD VDD mp5  l=0.42u w=0.5u m=1
M33 N_8 SN VDD VDD mp5  l=0.42u w=0.52u m=1
M34 N_12 CK VDD VDD mp5  l=0.42u w=0.5u m=1
.ends dfprb1


*40 Top of hierarchy  cell=dfprq1
.subckt dfprq1 VDD Q GND CK D SN
M1 Q N_8 N_27 GND mn5  l=0.5u w=0.58u m=1
M2 N_27 SN GND GND mn5  l=0.5u w=0.58u m=1
M3 N_33 SN GND GND mn5  l=0.5u w=0.5u m=1
M4 N_9 N_8 N_33 GND mn5  l=0.5u w=0.5u m=1
M5 N_32 N_9 GND GND mn5  l=0.5u w=0.5u m=1
M6 N_32 N_5 N_8 GND mn5  l=0.5u w=0.5u m=1
M7 N_8 N_4 N_31 GND mn5  l=0.5u w=0.5u m=1
M8 N_31 N_7 GND GND mn5  l=0.5u w=0.5u m=1
M9 N_30 SN GND GND mn5  l=0.5u w=0.5u m=1
M10 N_30 N_6 N_7 GND mn5  l=0.5u w=0.5u m=1
M11 N_29 N_7 GND GND mn5  l=0.5u w=0.5u m=1
M12 N_29 N_4 N_6 GND mn5  l=0.5u w=0.5u m=1
M13 N_28 N_5 N_6 GND mn5  l=0.5u w=0.5u m=1
M14 N_28 D GND GND mn5  l=0.5u w=0.5u m=1
M15 N_4 N_5 GND GND mn5  l=0.5u w=0.5u m=1
M16 N_5 CK GND GND mn5  l=0.5u w=0.5u m=1
M17 Q N_8 VDD VDD mp5  l=0.42u w=0.76u m=1
M18 Q SN VDD VDD mp5  l=0.42u w=0.76u m=1
M19 N_9 SN VDD VDD mp5  l=0.42u w=0.5u m=1
M20 N_9 N_8 VDD VDD mp5  l=0.42u w=0.5u m=1
M21 N_14 N_9 VDD VDD mp5  l=0.42u w=0.5u m=1
M22 N_14 N_4 N_8 VDD mp5  l=0.42u w=0.5u m=1
M23 N_13 N_5 N_8 VDD mp5  l=0.42u w=0.52u m=1
M24 N_13 N_7 VDD VDD mp5  l=0.42u w=0.52u m=1
M25 N_7 SN VDD VDD mp5  l=0.42u w=0.5u m=1
M26 N_7 N_6 VDD VDD mp5  l=0.42u w=0.5u m=1
M27 N_12 N_7 VDD VDD mp5  l=0.42u w=0.5u m=1
M28 N_11 N_4 N_6 VDD mp5  l=0.42u w=0.52u m=1
M29 N_12 N_5 N_6 VDD mp5  l=0.42u w=0.5u m=1
M30 N_11 D VDD VDD mp5  l=0.42u w=0.52u m=1