

.SUBCKT DFFHQNX1MTR QN VDD VNW VPW VSS CK D
mX_g14_MXNA1 nck CK VSS VPW n12 l=1.3e-07 w=2.3e-07
MXN0 cn CK VSS VPW n12 l=1.3e-07 w=1.8e-07
mX_g13_MXNA1 nmin D VSS VPW n12 l=1.3e-07 w=1.8e-07
mX_g10_MXNA1 c nck VSS VPW n12 l=1.3e-07 w=1.8e-07
MXN1 pm nmin net063 VPW n12 l=1.3e-07 w=1.8e-07
MXN2 net063 cn VSS VPW n12 l=1.3e-07 w=1.8e-07
mXI12_MXNOE pm c XI12_n1 VPW n12 l=1.3e-07 w=1.8e-07
mXI12_MXNA1 XI12_n1 m VSS VPW n12 l=1.3e-07 w=1.8e-07
mX_g5_MXNA1 m pm VSS VPW n12 l=1.3e-07 w=2.4e-07
mXI43_MXNOE bm c m VPW n12 l=1.3e-07 w=1.8e-07
mXI11_MXNOE bm cn XI11_n1 VPW n12 l=1.3e-07 w=1.5e-07
mXI11_MXNA1 XI11_n1 s VSS VPW n12 l=1.3e-07 w=1.5e-07
mX_g2_MXNA1 s bm VSS VPW n12 l=1.3e-07 w=1.8e-07
mX_g9_MXNA1 QN s VSS VPW n12 l=1.3e-07 w=3.6e-07
mX_g14_MXPA1 nck CK VDD VNW p12 l=1.3e-07 w=2.3e-07
MXP0 net051 CK VDD VNW p12 l=1.3e-07 w=4.2e-07
MXP1 net051 c cn VNW p12 l=1.3e-07 w=4.2e-07
mX_g13_MXPA1 nmin D VDD VNW p12 l=1.3e-07 w=2.3e-07
mX_g10_MXPA1 c nck VDD VNW p12 l=1.3e-07 w=5e-07
MXP2 net050 c VDD VNW p12 l=1.3e-07 w=2.3e-07
MXP3 pm nmin net050 VNW p12 l=1.3e-07 w=2.3e-07
mXI12_MXPOEN pm cn XI12_p1 VNW p12 l=1.3e-07 w=2.3e-07
mXI12_MXPA1 XI12_p1 m VDD VNW p12 l=1.3e-07 w=2.3e-07
mX_g5_MXPA1 m pm VDD VNW p12 l=1.3e-07 w=3.6e-07
mXI43_MXPOEN bm cn m VNW p12 l=1.3e-07 w=3.6e-07
mXI11_MXPOEN bm c XI11_p1 VNW p12 l=1.3e-07 w=1.5e-07
mXI11_MXPA1 XI11_p1 s VDD VNW p12 l=1.3e-07 w=1.5e-07
mX_g2_MXPA1 s bm VDD VNW p12 l=1.3e-07 w=2.3e-07
mX_g9_MXPA1 QN s VDD VNW p12 l=1.3e-07 w=6.2e-07
.ends


.SUBCKT DFFHQNX2MTR QN VDD VNW VPW VSS CK D
mX_g14_MXNA1 nck CK VSS VPW n12 l=1.3e-07 w=2.3e-07
MXN0 cn CK VSS VPW n12 l=1.3e-07 w=1.8e-07
mX_g13_MXNA1 nmin D VSS VPW n12 l=1.3e-07 w=1.8e-07
mX_g10_MXNA1 c nck VSS VPW n12 l=1.3e-07 w=1.8e-07
MXN1 pm nmin net063 VPW n12 l=1.3e-07 w=1.8e-07
MXN2 net063 cn VSS VPW n12 l=1.3e-07 w=1.8e-07
mXI12_MXNOE pm c XI12_n1 VPW n12 l=1.3e-07 w=1.8e-07
mXI12_MXNA1 XI12_n1 m VSS VPW n12 l=1.3e-07 w=1.8e-07
mX_g5_MXNA1 m pm VSS VPW n12 l=1.3e-07 w=2.4e-07
mXI43_MXNOE bm c m VPW n12 l=1.3e-07 w=1.8e-07
mXI11_MXNOE bm cn XI11_n1 VPW n12 l=1.3e-07 w=1.5e-07
mXI11_MXNA1 XI11_n1 s VSS VPW n12 l=1.3e-07 w=1.5e-07
mX_g2_MXNA1 s bm VSS VPW n12 l=1.3e-07 w=2.7e-07
mX_g9_MXNA1 QN s VSS VPW n12 l=1.3e-07 w=6.9e-07
mX_g14_MXPA1 nck CK VDD VNW p12 l=1.3e-07 w=2.3e-07
MXP0 net051 CK VDD VNW p12 l=1.3e-07 w=4.2e-07
MXP1 net051 c cn VNW p12 l=1.3e-07 w=4.2e-07
mX_g13_MXPA1 nmin D VDD VNW p12 l=1.3e-07 w=2.3e-07
mX_g10_MXPA1 c nck VDD VNW p12 l=1.3e-07 w=5e-07
MXP2 net050 c VDD VNW p12 l=1.3e-07 w=2.3e-07
MXP3 pm nmin net050 VNW p12 l=1.3e-07 w=2.3e-07
mXI12_MXPOEN pm cn XI12_p1 VNW p12 l=1.3e-07 w=2.2e-07
mXI12_MXPA1 XI12_p1 m VDD VNW p12 l=1.3e-07 w=2.2e-07
mX_g5_MXPA1 m pm VDD VNW p12 l=1.3e-07 w=3.6e-07
mXI43_MXPOEN bm cn m VNW p12 l=1.3e-07 w=3.6e-07
mXI11_MXPOEN bm c XI11_p1 VNW p12 l=1.3e-07 w=1.5e-07
mXI11_MXPA1 XI11_p1 s VDD VNW p12 l=1.3e-07 w=1.5e-07
mX_g2_MXPA1 s bm VDD VNW p12 l=1.3e-07 w=3e-07
mX_g9_MXPA1 QN s VDD VNW p12 l=1.3e-07 w=8.4e-07
.ends


.SUBCKT DFFHQNX4MTR QN VDD VNW VPW VSS CK D
mX_g14_MXNA1 nck CK VSS VPW n12 l=1.3e-07 w=2.3e-07
MXN0 cn CK VSS VPW n12 l=1.3e-07 w=1.8e-07
mX_g13_MXNA1 nmin D VSS VPW n12 l=1.3e-07 w=1.8e-07
mX_g10_MXNA1 c nck VSS VPW n12 l=1.3e-07 w=1.8e-07
MXN1 pm nmin net063 VPW n12 l=1.3e-07 w=1.8e-07
MXN2 net063 cn VSS VPW n12 l=1.3e-07 w=1.8e-07
mXI12_MXNOE pm c XI12_n1 VPW n12 l=1.3e-07 w=1.8e-07
mXI12_MXNA1 XI12_n1 m VSS VPW n12 l=1.3e-07 w=1.8e-07
mX_g5_MXNA1 m pm VSS VPW n12 l=1.3e-07 w=2.4e-07
mXI43_MXNOE bm c m VPW n12 l=1.3e-07 w=1.8e-07
mXI11_MXNOE bm cn XI11_n1 VPW n12 l=1.3e-07 w=1.5e-07
mXI11_MXNA1 XI11_n1 s VSS VPW n12 l=1.3e-07 w=1.5e-07
mX_g9_MXNA1 QN s VSS VPW n12 l=1.3e-07 w=6.9e-07
mX_g9_MXNA1_2 QN s VSS VPW n12 l=1.3e-07 w=6.9e-07
mX_g2_MXNA1 s bm VSS VPW n12 l=1.3e-07 w=5e-07
mX_g14_MXPA1 nck CK VDD VNW p12 l=1.3e-07 w=2.3e-07
MXP0 net051 CK VDD VNW p12 l=1.3e-07 w=4.2e-07
MXP1 net051 c cn VNW p12 l=1.3e-07 w=4.2e-07
mX_g13_MXPA1 nmin D VDD VNW p12 l=1.3e-07 w=2.3e-07
mX_g10_MXPA1 c nck VDD VNW p12 l=1.3e-07 w=5e-07
MXP2 net050 c VDD VNW p12 l=1.3e-07 w=2.3e-07
MXP3 pm nmin net050 VNW p12 l=1.3e-07 w=2.3e-07
mXI12_MXPOEN pm cn XI12_p1 VNW p12 l=1.3e-07 w=2.2e-07
mXI12_MXPA1 XI12_p1 m VDD VNW p12 l=1.3e-07 w=2.2e-07
mX_g5_MXPA1 m pm VDD VNW p12 l=1.3e-07 w=3.6e-07
mXI43_MXPOEN bm cn m VNW p12 l=1.3e-07 w=3.6e-07
mXI11_MXPOEN bm c XI11_p1 VNW p12 l=1.3e-07 w=1.5e-07
mXI11_MXPA1 XI11_p1 s VDD VNW p12 l=1.3e-07 w=1.5e-07
mX_g9_MXPA1 QN s VDD VNW p12 l=1.3e-07 w=8.4e-07
mX_g9_MXPA1_2 QN s VDD VNW p12 l=1.3e-07 w=8.4e-07
mX_g2_MXPA1 s bm VDD VNW p12 l=1.3e-07 w=6.1e-07
.ends


.SUBCKT DFFHQNX8MTR QN VDD VNW VPW VSS CK D
mX_g14_MXNA1 nck CK VSS VPW n12 l=1.3e-07 w=2.3e-07
MXN0 cn CK VSS VPW n12 l=1.3e-07 w=1.8e-07
mX_g13_MXNA1 nmin D VSS VPW n12 l=1.3e-07 w=1.8e-07
mX_g10_MXNA1 c nck VSS VPW n12 l=1.3e-07 w=1.8e-07
MXN1 pm nmin net063 VPW n12 l=1.3e-07 w=1.8e-07
MXN2 net063 cn VSS VPW n12 l=1.3e-07 w=1.8e-07
mXI12_MXNOE pm c XI12_n1 VPW n12 l=1.3e-07 w=1.8e-07
mXI12_MXNA1 XI12_n1 m VSS VPW n12 l=1.3e-07 w=1.8e-07
mX_g5_MXNA1 m pm VSS VPW n12 l=1.3e-07 w=2.4e-07
mXI43_MXNOE bm c m VPW n12 l=1.3e-07 w=1.8e-07
mXI11_MXNOE bm cn XI11_n1 VPW n12 l=1.3e-07 w=1.5e-07
mXI11_MXNA1 XI11_n1 s VSS VPW n12 l=1.3e-07 w=1.5e-07
mX_g9_MXNA1 QN s VSS VPW n12 l=1.3e-07 w=6.9e-07
mX_g9_MXNA1_2 QN s VSS VPW n12 l=1.3e-07 w=6.9e-07
mX_g9_MXNA1_3 QN s VSS VPW n12 l=1.3e-07 w=6.9e-07
mX_g9_MXNA1_4 QN s VSS VPW n12 l=1.3e-07 w=6.9e-07
mX_g2_MXNA1 s bm VSS VPW n12 l=1.3e-07 w=6.9e-07
mX_g14_MXPA1 nck CK VDD VNW p12 l=1.3e-07 w=2.3e-07
MXP0 net051 CK VDD VNW p12 l=1.3e-07 w=4.2e-07
MXP1 net051 c cn VNW p12 l=1.3e-07 w=4.2e-07
mX_g13_MXPA1 nmin D VDD VNW p12 l=1.3e-07 w=2.3e-07
mX_g10_MXPA1 c nck VDD VNW p12 l=1.3e-07 w=5e-07
MXP2 net050 c VDD VNW p12 l=1.3e-07 w=2.3e-07
MXP3 pm nmin net050 VNW p12 l=1.3e-07 w=2.3e-07
mXI12_MXPOEN pm cn XI12_p1 VNW p12 l=1.3e-07 w=2.2e-07
mXI12_MXPA1 XI12_p1 m VDD VNW p12 l=1.3e-07 w=2.2e-07
mX_g5_MXPA1 m pm VDD VNW p12 l=1.3e-07 w=3.6e-07
mXI43_MXPOEN bm cn m VNW p12 l=1.3e-07 w=3.6e-07
mXI11_MXPOEN bm c XI11_p1 VNW p12 l=1.3e-07 w=1.5e-07
mXI11_MXPA1 XI11_p1 s VDD VNW p12 l=1.3e-07 w=1.5e-07
mX_g9_MXPA1 QN s VDD VNW p12 l=1.3e-07 w=8.4e-07
mX_g9_MXPA1_2 QN s VDD VNW p12 l=1.3e-07 w=8.4e-07
mX_g9_MXPA1_3 QN s VDD VNW p12 l=1.3e-07 w=8.4e-07
mX_g9_MXPA1_4 QN s VDD VNW p12 l=1.3e-07 w=8.4e-07
mX_g2_MXPA1 s bm VDD VNW p12 l=1.3e-07 w=8.4e-07
.ends


.SUBCKT DFFHQX1MTR Q VDD VNW VPW VSS CK D
mX_g14_MXNA1 nck CK VSS VPW n12 l=1.3e-07 w=2.3e-07
MXN0 cn CK VSS VPW n12 l=1.3e-07 w=1.8e-07
mX_g13_MXNA1 nmin D VSS VPW n12 l=1.3e-07 w=1.8e-07
mX_g10_MXNA1 c nck VSS VPW n12 l=1.3e-07 w=2.2e-07
MXN1 pm nmin net87 VPW n12 l=1.3e-07 w=3.4e-07
MXN3 net87 cn VSS VPW n12 l=1.3e-07 w=3.4e-07
mXI12_MXNOE pm c XI12_n1 VPW n12 l=1.3e-07 w=1.8e-07
mXI12_MXNA1 XI12_n1 m VSS VPW n12 l=1.3e-07 w=1.8e-07
mX_g5_MXNA1 m pm VSS VPW n12 l=1.3e-07 w=4.3e-07
mXI36_MXNOE bm c m VPW n12 l=1.3e-07 w=3.8e-07
mXI11_MXNOE bm cn XI11_n1 VPW n12 l=1.3e-07 w=1.5e-07
mXI11_MXNA1 XI11_n1 s VSS VPW n12 l=1.3e-07 w=1.5e-07
mX_g2_MXNA1 s bm VSS VPW n12 l=1.3e-07 w=1.8e-07
mX_g1_MXNA1 Q bm VSS VPW n12 l=1.3e-07 w=3.6e-07
mX_g14_MXPA1 nck CK VDD VNW p12 l=1.3e-07 w=2.3e-07
MXP0 net061 CK VDD VNW p12 l=1.3e-07 w=4.2e-07
MXP4 net061 c cn VNW p12 l=1.3e-07 w=4.2e-07
mX_g13_MXPA1 nmin D VDD VNW p12 l=1.3e-07 w=5.1e-07
mX_g10_MXPA1 c nck VDD VNW p12 l=1.3e-07 w=6.1e-07
MXP2 net62 c VDD VNW p12 l=1.3e-07 w=4.1e-07
MXP5 pm nmin net62 VNW p12 l=1.3e-07 w=4.1e-07
mXI12_MXPOEN pm cn XI12_p1 VNW p12 l=1.3e-07 w=2.3e-07
mXI12_MXPA1 XI12_p1 m VDD VNW p12 l=1.3e-07 w=2.3e-07
mX_g5_MXPA1 m pm VDD VNW p12 l=1.3e-07 w=7.4e-07
mXI36_MXPOEN bm cn m VNW p12 l=1.3e-07 w=7.4e-07
mXI11_MXPOEN bm c XI11_p1 VNW p12 l=1.3e-07 w=1.5e-07
mXI11_MXPA1 XI11_p1 s VDD VNW p12 l=1.3e-07 w=1.5e-07
mX_g2_MXPA1 s bm VDD VNW p12 l=1.3e-07 w=2.3e-07
mX_g1_MXPA1 Q bm VDD VNW p12 l=1.3e-07 w=6.2e-07
.ends


.SUBCKT DFFHQX2MTR Q VDD VNW VPW VSS CK D
mX_g14_MXNA1 nck CK VSS VPW n12 l=1.3e-07 w=2.3e-07
MXN0 cn CK VSS VPW n12 l=1.3e-07 w=1.9e-07
mX_g13_MXNA1 nmin D VSS VPW n12 l=1.3e-07 w=1.8e-07
mX_g10_MXNA1 c nck VSS VPW n12 l=1.3e-07 w=2.7e-07
MXN1 pm nmin net87 VPW n12 l=1.3e-07 w=4.8e-07
MXN4 net87 cn VSS VPW n12 l=1.3e-07 w=4.8e-07
mXI12_MXNA1 XI12_n1 m VSS VPW n12 l=1.3e-07 w=1.8e-07
mXI12_MXNOE pm c XI12_n1 VPW n12 l=1.3e-07 w=1.8e-07
mX_g5_MXNA1 m pm VSS VPW n12 l=1.3e-07 w=6.1e-07
mXI36_MXNOE bm c m VPW n12 l=1.3e-07 w=5.5e-07
mXI11_MXNOE bm cn XI11_n1 VPW n12 l=1.3e-07 w=1.5e-07
mXI11_MXNA1 XI11_n1 s VSS VPW n12 l=1.3e-07 w=1.5e-07
mX_g2_MXNA1 s bm VSS VPW n12 l=1.3e-07 w=1.5e-07
mX_g1_MXNA1 Q bm VSS VPW n12 l=1.3e-07 w=6.9e-07
mX_g14_MXPA1 nck CK VDD VNW p12 l=1.3e-07 w=2.3e-07
MXP0 net061 CK VDD VNW p12 l=1.3e-07 w=4.4e-07
MXP6 net061 c cn VNW p12 l=1.3e-07 w=4.4e-07
mX_g13_MXPA1 nmin D VDD VNW p12 l=1.3e-07 w=2.3e-07
mX_g10_MXPA1 c nck VDD VNW p12 l=1.3e-07 w=6.7e-07
MXP2 net62 c VDD VNW p12 l=1.3e-07 w=5.9e-07
MXP7 pm nmin net62 VNW p12 l=1.3e-07 w=5.9e-07
mXI12_MXPOEN pm cn XI12_p1 VNW p12 l=1.3e-07 w=2.2e-07
mXI12_MXPA1 XI12_p1 m VDD VNW p12 l=1.3e-07 w=2.2e-07
mX_g5_MXPA1 m pm VDD VNW p12 l=1.3e-07 w=5.5e-07
mX_g5_MXPA1_2 m pm VDD VNW p12 l=1.3e-07 w=5.5e-07
mXI36_MXPOEN bm cn m VNW p12 l=1.3e-07 w=7.4e-07
mXI11_MXPOEN bm c XI11_p1 VNW p12 l=1.3e-07 w=1.5e-07
mXI11_MXPA1 XI11_p1 s VDD VNW p12 l=1.3e-07 w=1.5e-07
mX_g2_MXPA1 s bm VDD VNW p12 l=1.3e-07 w=3e-07
mX_g1_MXPA1 Q bm VDD VNW p12 l=1.3e-07 w=8.4e-07
.ends


.SUBCKT DFFHQX4MTR Q VDD VNW VPW VSS CK D
mX_g14_MXNA1 nck CK VSS VPW n12 l=1.3e-07 w=3e-07
MXN0 cn CK VSS VPW n12 l=1.3e-07 w=3.2e-07
mX_g13_MXNA1 nmin D VSS VPW n12 l=1.3e-07 w=2.8e-07
mX_g10_MXNA1 c nck VSS VPW n12 l=1.3e-07 w=4.2e-07
MXN1 pm nmin net87 VPW n12 l=1.3e-07 w=6.9e-07
MXN5 net87 cn VSS VPW n12 l=1.3e-07 w=6.9e-07
mXI12_MXNA1 XI12_n1 m VSS VPW n12 l=1.3e-07 w=1.8e-07
mXI12_MXNOE pm c XI12_n1 VPW n12 l=1.3e-07 w=1.8e-07
mX_g5_MXNA1 m pm VSS VPW n12 l=1.3e-07 w=7.2e-07
mXI36_MXNOE bm c m VPW n12 l=1.3e-07 w=7.2e-07
mXI11_MXNOE bm cn XI11_n1 VPW n12 l=1.3e-07 w=1.5e-07
mXI11_MXNA1 XI11_n1 s VSS VPW n12 l=1.3e-07 w=1.5e-07
mX_g2_MXNA1 s bm VSS VPW n12 l=1.3e-07 w=1.5e-07
mX_g1_MXNA1 Q bm VSS VPW n12 l=1.3e-07 w=6.9e-07
mX_g1_MXNA1_2 Q bm VSS VPW n12 l=1.3e-07 w=6.9e-07
mX_g14_MXPA1 nck CK VDD VNW p12 l=1.3e-07 w=3e-07
MXP0 net061 CK VDD VNW p12 l=1.3e-07 w=7.4e-07
MXP8 net061 c cn VNW p12 l=1.3e-07 w=7.4e-07
mX_g13_MXPA1 nmin D VDD VNW p12 l=1.3e-07 w=3.4e-07
mX_g10_MXPA1 c nck VDD VNW p12 l=1.3e-07 w=6.3e-07
mX_g10_MXPA1_2 c nck VDD VNW p12 l=1.3e-07 w=6.3e-07
MXP2 net62 c VDD VNW p12 l=1.3e-07 w=8e-07
MXP9 pm nmin net62 VNW p12 l=1.3e-07 w=8e-07
mXI12_MXPOEN pm cn XI12_p1 VNW p12 l=1.3e-07 w=2.2e-07
mXI12_MXPA1 XI12_p1 m VDD VNW p12 l=1.3e-07 w=2.2e-07
mX_g5_MXPA1 m pm VDD VNW p12 l=1.3e-07 w=8e-07
mX_g5_MXPA1_2 m pm VDD VNW p12 l=1.3e-07 w=8e-07
mXI36_MXPOEN bm cn m VNW p12 l=1.3e-07 w=8.1e-07
mXI36_MXPOEN_2 bm cn m VNW p12 l=1.3e-07 w=8.1e-07
mXI11_MXPOEN bm c XI11_p1 VNW p12 l=1.3e-07 w=1.5e-07
mXI11_MXPA1 XI11_p1 s VDD VNW p12 l=1.3e-07 w=1.5e-07
mX_g2_MXPA1 s bm VDD VNW p12 l=1.3e-07 w=1.5e-07
mX_g1_MXPA1 Q bm VDD VNW p12 l=1.3e-07 w=8.4e-07
mX_g1_MXPA1_2 Q bm VDD VNW p12 l=1.3e-07 w=8.4e-07
.ends


.SUBCKT DFFHQX8MTR Q VDD VNW VPW VSS CK D
mX_g14_MXNA1 nck CK VSS VPW n12 l=1.3e-07 w=5.4e-07
MXN0 cn CK VSS VPW n12 l=1.3e-07 w=4.4e-07
mX_g13_MXNA1 nmin D VSS VPW n12 l=1.3e-07 w=5.3e-07
mX_g10_MXNA1 c nck VSS VPW n12 l=1.3e-07 w=4.2e-07
MXN1 pm nmin net87 VPW n12 l=1.3e-07 w=6.9e-07
MXN5 net87 cn VSS VPW n12 l=1.3e-07 w=6.9e-07
mXI12_MXNA1 XI12_n1 m VSS VPW n12 l=1.3e-07 w=1.8e-07
mXI12_MXNOE pm c XI12_n1 VPW n12 l=1.3e-07 w=1.8e-07
mX_g5_MXNA1 m pm VSS VPW n12 l=1.3e-07 w=7.2e-07
mXI36_MXNOE bm c m VPW n12 l=1.3e-07 w=7.2e-07
mXI11_MXNOE bm cn XI11_n1 VPW n12 l=1.3e-07 w=1.5e-07
mXI11_MXNA1 XI11_n1 s VSS VPW n12 l=1.3e-07 w=1.5e-07
mX_g2_MXNA1 s bm VSS VPW n12 l=1.3e-07 w=1.5e-07
mX_g1_MXNA1 Q bm VSS VPW n12 l=1.3e-07 w=6.9e-07
mX_g1_MXNA1_2 Q bm VSS VPW n12 l=1.3e-07 w=6.9e-07
mX_g1_MXNA1_3 Q bm VSS VPW n12 l=1.3e-07 w=6.9e-07
mX_g1_MXNA1_4 Q bm VSS VPW n12 l=1.3e-07 w=6.9e-07
mX_g14_MXPA1 nck CK VDD VNW p12 l=1.3e-07 w=5.4e-07
MXP0 net061 CK VDD VNW p12 l=1.3e-07 w=7.3e-07
MXP10 net061 c cn VNW p12 l=1.3e-07 w=7.3e-07
mX_g13_MXPA1 nmin D VDD VNW p12 l=1.3e-07 w=6.5e-07
mX_g10_MXPA1 c nck VDD VNW p12 l=1.3e-07 w=8.5e-07
mX_g10_MXPA1_2 c nck VDD VNW p12 l=1.3e-07 w=8.5e-07
MXP2 net62 c VDD VNW p12 l=1.3e-07 w=8e-07
MXP9 pm nmin net62 VNW p12 l=1.3e-07 w=8e-07
mXI12_MXPOEN pm cn XI12_p1 VNW p12 l=1.3e-07 w=2.2e-07
mXI12_MXPA1 XI12_p1 m VDD VNW p12 l=1.3e-07 w=2.2e-07
mX_g5_MXPA1 m pm VDD VNW p12 l=1.3e-07 w=8e-07
mX_g5_MXPA1_2 m pm VDD VNW p12 l=1.3e-07 w=6.1e-07
mXI36_MXPOEN bm cn m VNW p12 l=1.3e-07 w=8.1e-07
mXI36_MXPOEN_2 bm cn m VNW p12 l=1.3e-07 w=7.3e-07
mXI11_MXPOEN bm c XI11_p1 VNW p12 l=1.3e-07 w=1.5e-07
mXI11_MXPA1 XI11_p1 s VDD VNW p12 l=1.3e-07 w=1.5e-07
mX_g2_MXPA1 s bm VDD VNW p12 l=1.3e-07 w=1.5e-07
mX_g1_MXPA1 Q bm VDD VNW p12 l=1.3e-07 w=8.4e-07
mX_g1_MXPA1_2 Q bm VDD VNW p12 l=1.3e-07 w=8.4e-07
mX_g1_MXPA1_3 Q bm VDD VNW p12 l=1.3e-07 w=8.4e-07
mX_g1_MXPA1_4 Q bm VDD VNW p12 l=1.3e-07 w=8.4e-07
.ends


.SUBCKT DFFHX1MTR Q QN VDD VNW VPW VSS CK D
mX_g14_MXNA1 nck CK VSS VPW n12 l=1.3e-07 w=2.3e-07
MXN0 cn CK VSS VPW n12 l=1.3e-07 w=1.8e-07
mX_g13_MXNA1 nmin D VSS VPW n12 l=1.3e-07 w=1.8e-07
mX_g10_MXNA1 c nck VSS VPW n12 l=1.3e-07 w=2.3e-07
MXN1 pm nmin net42 VPW n12 l=1.3e-07 w=3.6e-07
MXN3 net42 cn VSS VPW n12 l=1.3e-07 w=3.6e-07
mXI0_MXNOE pm c XI0_n1 VPW n12 l=1.3e-07 w=1.8e-07
mXI0_MXNA1 XI0_n1 m VSS VPW n12 l=1.3e-07 w=1.8e-07
mX_g5_MXNA1 m pm VSS VPW n12 l=1.3e-07 w=4.5e-07
mXI32_MXNOE bm c m VPW n12 l=1.3e-07 w=4e-07
mXI1_MXNOE bm cn XI1_n1 VPW n12 l=1.3e-07 w=1.5e-07
mXI1_MXNA1 XI1_n1 s VSS VPW n12 l=1.3e-07 w=1.5e-07
mX_g2_MXNA1 s bm VSS VPW n12 l=1.3e-07 w=1.8e-07
mX_g1_MXNA1 Q bm VSS VPW n12 l=1.3e-07 w=3.6e-07
mX_g9_MXNA1 QN s VSS VPW n12 l=1.3e-07 w=1.8e-07
mX_g14_MXPA1 nck CK VDD VNW p12 l=1.3e-07 w=2.3e-07
MXP0 net63 CK VDD VNW p12 l=1.3e-07 w=4.2e-07
MXP5 net63 c cn VNW p12 l=1.3e-07 w=4.2e-07
mX_g13_MXPA1 nmin D VDD VNW p12 l=1.3e-07 w=2.3e-07
mX_g10_MXPA1 c nck VDD VNW p12 l=1.3e-07 w=6.3e-07
MXP2 net53 c VDD VNW p12 l=1.3e-07 w=4.4e-07
MXP6 pm nmin net53 VNW p12 l=1.3e-07 w=4.4e-07
mXI0_MXPOEN pm cn XI0_p1 VNW p12 l=1.3e-07 w=2.3e-07
mXI0_MXPA1 XI0_p1 m VDD VNW p12 l=1.3e-07 w=2.3e-07
mX_g5_MXPA1 m pm VDD VNW p12 l=1.3e-07 w=7.9e-07
mXI32_MXPOEN bm cn m VNW p12 l=1.3e-07 w=7.9e-07
mXI1_MXPOEN bm c XI1_p1 VNW p12 l=1.3e-07 w=1.5e-07
mXI1_MXPA1 XI1_p1 s VDD VNW p12 l=1.3e-07 w=1.5e-07
mX_g1_MXPA1 Q bm VDD VNW p12 l=1.3e-07 w=3.1e-07
mX_g2_MXPA1 s bm VDD VNW p12 l=1.3e-07 w=2.3e-07
mX_g1_MXPA1_2 Q bm VDD VNW p12 l=1.3e-07 w=3.1e-07
mX_g9_MXPA1 QN s VDD VNW p12 l=1.3e-07 w=3.6e-07
.ends


.SUBCKT DFFHX2MTR Q QN VDD VNW VPW VSS CK D
mX_g14_MXNA1 nck CK VSS VPW n12 l=1.3e-07 w=2.3e-07
MXN0 cn CK VSS VPW n12 l=1.3e-07 w=2e-07
mX_g13_MXNA1 nmin D VSS VPW n12 l=1.3e-07 w=3.2e-07
mX_g10_MXNA1 c nck VSS VPW n12 l=1.3e-07 w=2.8e-07
MXN1 pm nmin net42 VPW n12 l=1.3e-07 w=5.1e-07
MXN4 net42 cn VSS VPW n12 l=1.3e-07 w=5.1e-07
mXI0_MXNOE pm c XI0_n1 VPW n12 l=1.3e-07 w=1.8e-07
mXI0_MXNA1 XI0_n1 m VSS VPW n12 l=1.3e-07 w=1.8e-07
mX_g5_MXNA1 m pm VSS VPW n12 l=1.3e-07 w=6.3e-07
mXI32_MXNOE bm c m VPW n12 l=1.3e-07 w=5.7e-07
mXI1_MXNOE bm cn XI1_n1 VPW n12 l=1.3e-07 w=1.5e-07
mXI1_MXNA1 XI1_n1 s VSS VPW n12 l=1.3e-07 w=1.5e-07
mX_g2_MXNA1 s bm VSS VPW n12 l=1.3e-07 w=1.8e-07
mX_g1_MXNA1 Q bm VSS VPW n12 l=1.3e-07 w=7.1e-07
mX_g9_MXNA1 QN s VSS VPW n12 l=1.3e-07 w=1.8e-07
mX_g14_MXPA1 nck CK VDD VNW p12 l=1.3e-07 w=2.3e-07
MXP0 net63 CK VDD VNW p12 l=1.3e-07 w=4.6e-07
MXP7 net63 c cn VNW p12 l=1.3e-07 w=4.6e-07
mX_g13_MXPA1 nmin D VDD VNW p12 l=1.3e-07 w=3.9e-07
mX_g10_MXPA1 c nck VDD VNW p12 l=1.3e-07 w=8e-07
MXP8 net53 c VDD VNW p12 l=1.3e-07 w=6.2e-07
MXP10 pm nmin net53 VNW p12 l=1.3e-07 w=6.2e-07
mXI0_MXPOEN pm cn XI0_p1 VNW p12 l=1.3e-07 w=2.3e-07
mXI0_MXPA1 XI0_p1 m VDD VNW p12 l=1.3e-07 w=2.3e-07
mX_g5_MXPA1 m pm VDD VNW p12 l=1.3e-07 w=5.7e-07
mX_g5_MXPA1_2 m pm VDD VNW p12 l=1.3e-07 w=5.8e-07
mXI32_MXPOEN bm cn m VNW p12 l=1.3e-07 w=5.4e-07
mXI32_MXPOEN_2 bm cn m VNW p12 l=1.3e-07 w=6.1e-07
mXI1_MXPOEN bm c XI1_p1 VNW p12 l=1.3e-07 w=1.5e-07
mXI1_MXPA1 XI1_p1 s VDD VNW p12 l=1.3e-07 w=1.5e-07
mX_g1_MXPA1 Q bm VDD VNW p12 l=1.3e-07 w=4e-07
mX_g2_MXPA1 s bm VDD VNW p12 l=1.3e-07 w=2.3e-07
mX_g1_MXPA1_2 Q bm VDD VNW p12 l=1.3e-07 w=4e-07
mX_g9_MXPA1 QN s VDD VNW p12 l=1.3e-07 w=2.3e-07
.ends


.SUBCKT DFFHX4MTR Q QN VDD VNW VPW VSS CK D
mX_g14_MXNA1 nck CK VSS VPW n12 l=1.3e-07 w=3e-07
MXN0 cn CK VSS VPW n12 l=1.3e-07 w=3.3e-07
mX_g13_MXNA1 nmin D VSS VPW n12 l=1.3e-07 w=5.7e-07
mX_g10_MXNA1 c nck VSS VPW n12 l=1.3e-07 w=4.2e-07
MXN1 pm nmin net42 VPW n12 l=1.3e-07 w=7e-07
MXN5 net42 cn VSS VPW n12 l=1.3e-07 w=7e-07
mXI0_MXNOE pm c XI0_n1 VPW n12 l=1.3e-07 w=1.8e-07
mXI0_MXNA1 XI0_n1 m VSS VPW n12 l=1.3e-07 w=1.8e-07
mX_g5_MXNA1 m pm VSS VPW n12 l=1.3e-07 w=7.4e-07
mXI32_MXNOE bm c m VPW n12 l=1.3e-07 w=7.3e-07
mXI1_MXNOE bm cn XI1_n1 VPW n12 l=1.3e-07 w=1.5e-07
mXI1_MXNA1 XI1_n1 s VSS VPW n12 l=1.3e-07 w=1.5e-07
mX_g2_MXNA1 s bm VSS VPW n12 l=1.3e-07 w=1.8e-07
mX_g1_MXNA1 Q bm VSS VPW n12 l=1.3e-07 w=7.1e-07
mX_g1_MXNA1_2 Q bm VSS VPW n12 l=1.3e-07 w=7.1e-07
mX_g9_MXNA1 QN s VSS VPW n12 l=1.3e-07 w=1.8e-07
mX_g14_MXPA1 nck CK VDD VNW p12 l=1.3e-07 w=3e-07
MXP0 net63 CK VDD VNW p12 l=1.3e-07 w=6.4e-07
MXP11 net63 c cn VNW p12 l=1.3e-07 w=6.4e-07
mX_g13_MXPA1 nmin D VDD VNW p12 l=1.3e-07 w=6.5e-07
mX_g10_MXPA1 c nck VDD VNW p12 l=1.3e-07 w=8.6e-07
MXP8 net53 c VDD VNW p12 l=1.3e-07 w=8.6e-07
MXP12 pm nmin net53 VNW p12 l=1.3e-07 w=8.6e-07
mXI0_MXPOEN pm cn XI0_p1 VNW p12 l=1.3e-07 w=2.3e-07
mXI0_MXPA1 XI0_p1 m VDD VNW p12 l=1.3e-07 w=2.3e-07
mX_g5_MXPA1 m pm VDD VNW p12 l=1.3e-07 w=7.3e-07
mX_g5_MXPA1_2 m pm VDD VNW p12 l=1.3e-07 w=7.3e-07
mXI32_MXPOEN bm cn m VNW p12 l=1.3e-07 w=5.4e-07
mXI32_MXPOEN_2 bm cn m VNW p12 l=1.3e-07 w=8.2e-07
mXI1_MXPOEN bm c XI1_p1 VNW p12 l=1.3e-07 w=1.5e-07
mXI1_MXPA1 XI1_p1 s VDD VNW p12 l=1.3e-07 w=1.5e-07
mX_g2_MXPA1 s bm VDD VNW p12 l=1.3e-07 w=2.3e-07
mX_g1_MXPA1 Q bm VDD VNW p12 l=1.3e-07 w=8.7e-07
mX_g1_MXPA1_2 Q bm VDD VNW p12 l=1.3e-07 w=8.7e-07
mX_g9_MXPA1 QN s VDD VNW p12 l=1.3e-07 w=2.3e-07
.ends


.SUBCKT DFFHX8MTR Q QN VDD VNW VPW VSS CK D
mX_g14_MXNA1 nck CK VSS VPW n12 l=1.3e-07 w=3e-07
MXN0 cn CK VSS VPW n12 l=1.3e-07 w=3.3e-07
mX_g13_MXNA1 nmin D VSS VPW n12 l=1.3e-07 w=5.7e-07
mX_g10_MXNA1 c nck VSS VPW n12 l=1.3e-07 w=4.2e-07
MXN1 pm nmin net42 VPW n12 l=1.3e-07 w=7e-07
MXN5 net42 cn VSS VPW n12 l=1.3e-07 w=7e-07
mXI0_MXNOE pm c XI0_n1 VPW n12 l=1.3e-07 w=1.8e-07
mXI0_MXNA1 XI0_n1 m VSS VPW n12 l=1.3e-07 w=1.8e-07
mX_g5_MXNA1 m pm VSS VPW n12 l=1.3e-07 w=7.4e-07
mXI32_MXNOE bm c m VPW n12 l=1.3e-07 w=7.3e-07
mXI1_MXNOE bm cn XI1_n1 VPW n12 l=1.3e-07 w=1.5e-07
mXI1_MXNA1 XI1_n1 s VSS VPW n12 l=1.3e-07 w=1.5e-07
mX_g2_MXNA1 s bm VSS VPW n12 l=1.3e-07 w=1.8e-07
mX_g1_MXNA1 Q bm VSS VPW n12 l=1.3e-07 w=7.1e-07
mX_g1_MXNA1_2 Q bm VSS VPW n12 l=1.3e-07 w=7.1e-07
mX_g1_MXNA1_3 Q bm VSS VPW n12 l=1.3e-07 w=7.1e-07
mX_g1_MXNA1_4 Q bm VSS VPW n12 l=1.3e-07 w=7.1e-07
mX_g9_MXNA1 QN s VSS VPW n12 l=1.3e-07 w=1.8e-07
mX_g14_MXPA1 nck CK VDD VNW p12 l=1.3e-07 w=3e-07
MXP0 net63 CK VDD VNW p12 l=1.3e-07 w=6.4e-07
MXP11 net63 c cn VNW p12 l=1.3e-07 w=6.4e-07
mX_g13_MXPA1 nmin D VDD VNW p12 l=1.3e-07 w=6.5e-07
mX_g10_MXPA1 c nck VDD VNW p12 l=1.3e-07 w=8.6e-07
MXP8 net53 c VDD VNW p12 l=1.3e-07 w=8.6e-07
MXP12 pm nmin net53 VNW p12 l=1.3e-07 w=8.6e-07
mXI0_MXPOEN pm cn XI0_p1 VNW p12 l=1.3e-07 w=2.3e-07
mXI0_MXPA1 XI0_p1 m VDD VNW p12 l=1.3e-07 w=2.3e-07
mX_g5_MXPA1 m pm VDD VNW p12 l=1.3e-07 w=7.3e-07
mX_g5_MXPA1_2 m pm VDD VNW p12 l=1.3e-07 w=7.3e-07
mXI32_MXPOEN bm cn m VNW p12 l=1.3e-07 w=5.4e-07
mXI32_MXPOEN_2 bm cn m VNW p12 l=1.3e-07 w=8.2e-07
mXI1_MXPOEN bm c XI1_p1 VNW p12 l=1.3e-07 w=1.5e-07
mXI1_MXPA1 XI1_p1 s VDD VNW p12 l=1.3e-07 w=1.5e-07
mX_g2_MXPA1 s bm VDD VNW p12 l=1.3e-07 w=2.3e-07
mX_g1_MXPA1 Q bm VDD VNW p12 l=1.3e-07 w=8.7e-07
mX_g1_MXPA1_2 Q bm VDD VNW p12 l=1.3e-07 w=8.7e-07
mX_g1_MXPA1_3 Q bm VDD VNW p12 l=1.3e-07 w=8.7e-07
mX_g1_MXPA1_4 Q bm VDD VNW p12 l=1.3e-07 w=8.7e-07
mX_g9_MXPA1 QN s VDD VNW p12 l=1.3e-07 w=2.3e-07
.ends


.SUBCKT DFFNHX1MTR Q QN VDD VNW VPW VSS CKN D
mX_g14_MXNA1 nckn CKN VSS VPW n12 l=1.3e-07 w=2.3e-07
MXN0 c CKN VSS VPW n12 l=1.3e-07 w=1.8e-07
mX_g13_MXNA1 net150 D VSS VPW n12 l=1.3e-07 w=2.2e-07
mX_g10_MXNA1 cn nckn VSS VPW n12 l=1.3e-07 w=2.4e-07
MXN1 pm net150 net67 VPW n12 l=1.3e-07 w=4.3e-07
MXN2 net67 cn VSS VPW n12 l=1.3e-07 w=4.3e-07
mXI10_MXNOE pm c XI10_n1 VPW n12 l=1.3e-07 w=1.8e-07
mXI10_MXNA1 XI10_n1 m VSS VPW n12 l=1.3e-07 w=1.8e-07
mX_g5_MXNA1 m pm VSS VPW n12 l=1.3e-07 w=4.5e-07
mXI37_MXNOE bm c m VPW n12 l=1.3e-07 w=4e-07
mXI11_MXNOE bm cn XI11_n1 VPW n12 l=1.3e-07 w=1.8e-07
mXI11_MXNA1 XI11_n1 s VSS VPW n12 l=1.3e-07 w=1.8e-07
mX_g2_MXNA1 s bm VSS VPW n12 l=1.3e-07 w=1.8e-07
mXI52_MXNA1 Q bm VSS VPW n12 l=1.3e-07 w=3.6e-07
mXI54_MXNA1 QN s VSS VPW n12 l=1.3e-07 w=1.8e-07
mX_g14_MXPA1 nckn CKN VDD VNW p12 l=1.3e-07 w=2.3e-07
MXP0 net56 CKN VDD VNW p12 l=1.3e-07 w=4.2e-07
MXP1 net56 cn c VNW p12 l=1.3e-07 w=4.2e-07
mX_g13_MXPA1 net150 D VDD VNW p12 l=1.3e-07 w=2.6e-07
mX_g10_MXPA1 cn nckn VDD VNW p12 l=1.3e-07 w=6.8e-07
MXP2 net42 c VDD VNW p12 l=1.3e-07 w=3.3e-07
MXP3 pm net150 net42 VNW p12 l=1.3e-07 w=3.3e-07
mXI10_MXPOEN pm cn XI10_p1 VNW p12 l=1.3e-07 w=2.3e-07
mXI10_MXPA1 XI10_p1 m VDD VNW p12 l=1.3e-07 w=2.3e-07
mX_g5_MXPA1 m pm VDD VNW p12 l=1.3e-07 w=4.8e-07
mXI37_MXPOEN bm cn m VNW p12 l=1.3e-07 w=4.8e-07
mXI11_MXPOEN bm c XI11_p1 VNW p12 l=1.3e-07 w=2.3e-07
mXI11_MXPA1 XI11_p1 s VDD VNW p12 l=1.3e-07 w=2.3e-07
mXI52_MXPA1 Q bm VDD VNW p12 l=1.3e-07 w=3.1e-07
mX_g2_MXPA1 s bm VDD VNW p12 l=1.3e-07 w=2.3e-07
mXI52_MXPA1_2 Q bm VDD VNW p12 l=1.3e-07 w=3.1e-07
mXI54_MXPA1 QN s VDD VNW p12 l=1.3e-07 w=3.6e-07
.ends


.SUBCKT DFFNHX2MTR Q QN VDD VNW VPW VSS CKN D
mX_g14_MXNA1 nckn CKN VSS VPW n12 l=1.3e-07 w=2.3e-07
MXN0 c CKN VSS VPW n12 l=1.3e-07 w=1.8e-07
mX_g13_MXNA1 net150 D VSS VPW n12 l=1.3e-07 w=3.1e-07
mX_g10_MXNA1 cn nckn VSS VPW n12 l=1.3e-07 w=3e-07
MXN1 pm net150 net67 VPW n12 l=1.3e-07 w=6.1e-07
MXN3 net67 cn VSS VPW n12 l=1.3e-07 w=6.1e-07
mXI10_MXNOE pm c XI10_n1 VPW n12 l=1.3e-07 w=1.8e-07
mXI10_MXNA1 XI10_n1 m VSS VPW n12 l=1.3e-07 w=1.8e-07
mX_g5_MXNA1 m pm VSS VPW n12 l=1.3e-07 w=6.3e-07
mXI37_MXNOE bm c m VPW n12 l=1.3e-07 w=5.7e-07
mXI11_MXNOE bm cn XI11_n1 VPW n12 l=1.3e-07 w=1.8e-07
mXI11_MXNA1 XI11_n1 s VSS VPW n12 l=1.3e-07 w=1.8e-07
mX_g2_MXNA1 s bm VSS VPW n12 l=1.3e-07 w=1.8e-07
mXI52_MXNA1 Q bm VSS VPW n12 l=1.3e-07 w=7.1e-07
mXI54_MXNA1 QN s VSS VPW n12 l=1.3e-07 w=1.8e-07
mX_g14_MXPA1 nckn CKN VDD VNW p12 l=1.3e-07 w=2.3e-07
MXP0 net56 CKN VDD VNW p12 l=1.3e-07 w=4.2e-07
MXP1 net56 cn c VNW p12 l=1.3e-07 w=4.2e-07
mX_g13_MXPA1 net150 D VDD VNW p12 l=1.3e-07 w=3.7e-07
mX_g10_MXPA1 cn nckn VDD VNW p12 l=1.3e-07 w=4.2e-07
mX_g10_MXPA1_2 cn nckn VDD VNW p12 l=1.3e-07 w=4.2e-07
MXP2 net42 c VDD VNW p12 l=1.3e-07 w=4.6e-07
MXP4 pm net150 net42 VNW p12 l=1.3e-07 w=4.6e-07
mXI10_MXPOEN pm cn XI10_p1 VNW p12 l=1.3e-07 w=2.3e-07
mXI10_MXPA1 XI10_p1 m VDD VNW p12 l=1.3e-07 w=2.3e-07
mX_g5_MXPA1 m pm VDD VNW p12 l=1.3e-07 w=7e-07
mXI37_MXPOEN bm cn m VNW p12 l=1.3e-07 w=7e-07
mXI11_MXPOEN bm c XI11_p1 VNW p12 l=1.3e-07 w=2.3e-07
mXI11_MXPA1 XI11_p1 s VDD VNW p12 l=1.3e-07 w=2.3e-07
mXI52_MXPA1 Q bm VDD VNW p12 l=1.3e-07 w=4e-07
mX_g2_MXPA1 s bm VDD VNW p12 l=1.3e-07 w=2.3e-07
mXI52_MXPA1_2 Q bm VDD VNW p12 l=1.3e-07 w=4e-07
mXI54_MXPA1 QN s VDD VNW p12 l=1.3e-07 w=3.6e-07
.ends


.SUBCKT DFFNHX4MTR Q QN VDD VNW VPW VSS CKN D
mX_g14_MXNA1 nckn CKN VSS VPW n12 l=1.3e-07 w=3e-07
MXN0 c CKN VSS VPW n12 l=1.3e-07 w=2.1e-07
mX_g13_MXNA1 net150 D VSS VPW n12 l=1.3e-07 w=5.4e-07
mX_g10_MXNA1 cn nckn VSS VPW n12 l=1.3e-07 w=4.6e-07
MXN1 pm net150 net67 VPW n12 l=1.3e-07 w=5.4e-07
MXN3 net67 cn VSS VPW n12 l=1.3e-07 w=4.8e-07
MXN3_2 net67 cn VSS VPW n12 l=1.3e-07 w=4.8e-07
MXN1_2 pm net150 net67 VPW n12 l=1.3e-07 w=5.4e-07
mXI10_MXNOE pm c XI10_n1 VPW n12 l=1.3e-07 w=1.8e-07
mXI10_MXNA1 XI10_n1 m VSS VPW n12 l=1.3e-07 w=1.8e-07
mX_g5_MXNA1 m pm VSS VPW n12 l=1.3e-07 w=5.4e-07
mX_g5_MXNA1_2 m pm VSS VPW n12 l=1.3e-07 w=5.4e-07
mXI37_MXNOE bm c m VPW n12 l=1.3e-07 w=5.1e-07
mXI37_MXNOE_2 bm c m VPW n12 l=1.3e-07 w=5.1e-07
mXI11_MXNOE bm cn XI11_n1 VPW n12 l=1.3e-07 w=1.8e-07
mXI11_MXNA1 XI11_n1 s VSS VPW n12 l=1.3e-07 w=1.8e-07
mX_g2_MXNA1 s bm VSS VPW n12 l=1.3e-07 w=1.8e-07
mXI52_MXNA1 Q bm VSS VPW n12 l=1.3e-07 w=7.1e-07
mXI52_MXNA1_2 Q bm VSS VPW n12 l=1.3e-07 w=7.1e-07
mXI54_MXNA1 QN s VSS VPW n12 l=1.3e-07 w=1.8e-07
mX_g14_MXPA1 nckn CKN VDD VNW p12 l=1.3e-07 w=3e-07
MXP0 net56 CKN VDD VNW p12 l=1.3e-07 w=5e-07
MXP5 net56 cn c VNW p12 l=1.3e-07 w=5e-07
mX_g13_MXPA1 net150 D VDD VNW p12 l=1.3e-07 w=6.6e-07
mX_g10_MXPA1 cn nckn VDD VNW p12 l=1.3e-07 w=6.4e-07
mX_g10_MXPA1_2 cn nckn VDD VNW p12 l=1.3e-07 w=6.4e-07
MXP2 net42 c VDD VNW p12 l=1.3e-07 w=6.9e-07
MXP6 pm net150 net42 VNW p12 l=1.3e-07 w=6.9e-07
mXI10_MXPOEN pm cn XI10_p1 VNW p12 l=1.3e-07 w=2.3e-07
mXI10_MXPA1 XI10_p1 m VDD VNW p12 l=1.3e-07 w=2.3e-07
mX_g5_MXPA1 m pm VDD VNW p12 l=1.3e-07 w=6.3e-07
mX_g5_MXPA1_2 m pm VDD VNW p12 l=1.3e-07 w=6.3e-07
mXI37_MXPOEN bm cn m VNW p12 l=1.3e-07 w=6.3e-07
mXI37_MXPOEN_2 bm cn m VNW p12 l=1.3e-07 w=6.3e-07
mXI11_MXPOEN bm c XI11_p1 VNW p12 l=1.3e-07 w=2.3e-07
mXI11_MXPA1 XI11_p1 s VDD VNW p12 l=1.3e-07 w=2.3e-07
mXI52_MXPA1 Q bm VDD VNW p12 l=1.3e-07 w=4.1e-07
mX_g2_MXPA1 s bm VDD VNW p12 l=1.3e-07 w=2.3e-07
mXI52_MXPA1_2 Q bm VDD VNW p12 l=1.3e-07 w=4.1e-07
mXI52_MXPA1_3 Q bm VDD VNW p12 l=1.3e-07 w=8.7e-07
mXI54_MXPA1 QN s VDD VNW p12 l=1.3e-07 w=3.6e-07
.ends


.SUBCKT DFFNHX8MTR Q QN VDD VNW VPW VSS CKN D
mX_g14_MXNA1 nckn CKN VSS VPW n12 l=1.3e-07 w=5.4e-07
MXN0 c CKN VSS VPW n12 l=1.3e-07 w=3.8e-07
mX_g13_MXNA1 net150 D VSS VPW n12 l=1.3e-07 w=5e-07
mX_g13_MXNA1_2 net150 D VSS VPW n12 l=1.3e-07 w=5e-07
mX_g10_MXNA1 cn nckn VSS VPW n12 l=1.3e-07 w=4.6e-07
MXN1 pm net150 net67 VPW n12 l=1.3e-07 w=7.4e-07
MXN3 net67 cn VSS VPW n12 l=1.3e-07 w=4.8e-07
MXN3_2 net67 cn VSS VPW n12 l=1.3e-07 w=4.8e-07
MXN1_2 pm net150 net67 VPW n12 l=1.3e-07 w=5.7e-07
mXI10_MXNOE pm c XI10_n1 VPW n12 l=1.3e-07 w=2.5e-07
mXI10_MXNA1 XI10_n1 m VSS VPW n12 l=1.3e-07 w=2.5e-07
mX_g5_MXNA1 m pm VSS VPW n12 l=1.3e-07 w=7.4e-07
mX_g5_MXNA1_2 m pm VSS VPW n12 l=1.3e-07 w=7.4e-07
mXI37_MXNOE bm c m VPW n12 l=1.3e-07 w=6.1e-07
mXI37_MXNOE_2 bm c m VPW n12 l=1.3e-07 w=6.1e-07
mXI11_MXNOE bm cn XI11_n1 VPW n12 l=1.3e-07 w=1.8e-07
mXI11_MXNA1 XI11_n1 s VSS VPW n12 l=1.3e-07 w=1.8e-07
mX_g2_MXNA1 s bm VSS VPW n12 l=1.3e-07 w=1.8e-07
mXI52_MXNA1 Q bm VSS VPW n12 l=1.3e-07 w=7.1e-07
mXI52_MXNA1_2 Q bm VSS VPW n12 l=1.3e-07 w=7.1e-07
mXI52_MXNA1_3 Q bm VSS VPW n12 l=1.3e-07 w=7.1e-07
mXI52_MXNA1_4 Q bm VSS VPW n12 l=1.3e-07 w=7.1e-07
mXI54_MXNA1 QN s VSS VPW n12 l=1.3e-07 w=1.8e-07
mX_g14_MXPA1 nckn CKN VDD VNW p12 l=1.3e-07 w=5.4e-07
MXP0 net56 CKN VDD VNW p12 l=1.3e-07 w=6.4e-07
MXP7 net56 cn c VNW p12 l=1.3e-07 w=6.4e-07
mX_g13_MXPA1 net150 D VDD VNW p12 l=1.3e-07 w=6.2e-07
mX_g13_MXPA1_2 net150 D VDD VNW p12 l=1.3e-07 w=6.2e-07
mX_g10_MXPA1 cn nckn VDD VNW p12 l=1.3e-07 w=6.9e-07
mX_g10_MXPA1_2 cn nckn VDD VNW p12 l=1.3e-07 w=6.9e-07
MXP2 net42 c VDD VNW p12 l=1.3e-07 w=6.9e-07
MXP6 pm net150 net42 VNW p12 l=1.3e-07 w=6.9e-07
mXI10_MXPOEN pm cn XI10_p1 VNW p12 l=1.3e-07 w=3.1e-07
mXI10_MXPA1 XI10_p1 m VDD VNW p12 l=1.3e-07 w=3.1e-07
mX_g5_MXPA1 m pm VDD VNW p12 l=1.3e-07 w=7.3e-07
mX_g5_MXPA1_2 m pm VDD VNW p12 l=1.3e-07 w=7.3e-07
mXI37_MXPOEN bm cn m VNW p12 l=1.3e-07 w=6.9e-07
mXI37_MXPOEN_2 bm cn m VNW p12 l=1.3e-07 w=6.9e-07
mXI11_MXPOEN bm c XI11_p1 VNW p12 l=1.3e-07 w=2.3e-07
mXI11_MXPA1 XI11_p1 s VDD VNW p12 l=1.3e-07 w=2.3e-07
mXI52_MXPA1 Q bm VDD VNW p12 l=1.3e-07 w=4.1e-07
mX_g2_MXPA1 s bm VDD VNW p12 l=1.3e-07 w=2.3e-07
mXI52_MXPA1_2 Q bm VDD VNW p12 l=1.3e-07 w=4.1e-07
mXI52_MXPA1_3 Q bm VDD VNW p12 l=1.3e-07 w=8.7e-07
mXI52_MXPA1_4 Q bm VDD VNW p12 l=1.3e-07 w=8.7e-07
mXI52_MXPA1_5 Q bm VDD VNW p12 l=1.3e-07 w=8.7e-07
mXI54_MXPA1 QN s VDD VNW p12 l=1.3e-07 w=3.6e-07
.ends


.SUBCKT DFFNSRHX1MTR Q QN VDD VNW VPW VSS CKN D RN SN
mX_g14_MXNA1 nck CKN VSS VPW n12 l=1.3e-07 w=2.3e-07
MXN2 c CKN VSS VPW n12 l=1.3e-07 w=1.8e-07
mX_g10_MXNA1 cn nck VSS VPW n12 l=1.3e-07 w=3e-07
mX_g13_MXNA1 nmin D VSS VPW n12 l=1.3e-07 w=2.2e-07
mX_g5_MXNA1 nmset SN VSS VPW n12 l=1.3e-07 w=1.8e-07
MXN12 VSS SN net68 VPW n12 l=1.3e-07 w=4.3e-07
MXN11 net68 cn net72 VPW n12 l=1.3e-07 w=4.3e-07
MXN0 pm nmin net72 VPW n12 l=1.3e-07 w=4.3e-07
mXI19_MXNOE pm c XI19_n1 VPW n12 l=1.3e-07 w=1.8e-07
mXI19_MXNA1 XI19_n1 m VSS VPW n12 l=1.3e-07 w=1.8e-07
MXN4 m pm net80 VPW n12 l=1.3e-07 w=4.5e-07
MXN13 VSS RN net80 VPW n12 l=1.3e-07 w=4.5e-07
MXN6 m nmset VSS VPW n12 l=1.3e-07 w=1.8e-07
mXI58_MXNOE bm c m VPW n12 l=1.3e-07 w=4e-07
MXN7 bm cn net91 VPW n12 l=1.3e-07 w=1.8e-07
MXN14 net91 RN net88 VPW n12 l=1.3e-07 w=1.8e-07
MXN15 VSS s net88 VPW n12 l=1.3e-07 w=1.8e-07
MXN10 bm nmset VSS VPW n12 l=1.3e-07 w=1.8e-07
mX_g11_MXNA1 QN s VSS VPW n12 l=1.3e-07 w=1.8e-07
mX_g2_MXNA1 s bm VSS VPW n12 l=1.3e-07 w=1.8e-07
mX_g1_MXNA1 Q bm VSS VPW n12 l=1.3e-07 w=3.6e-07
mX_g14_MXPA1 nck CKN VDD VNW p12 l=1.3e-07 w=3e-07
MXP2 net152 CKN VDD VNW p12 l=1.3e-07 w=4.2e-07
MXP13 net152 cn c VNW p12 l=1.3e-07 w=4.2e-07
mX_g10_MXPA1 cn nck VDD VNW p12 l=1.3e-07 w=6.8e-07
mX_g13_MXPA1 nmin D VDD VNW p12 l=1.3e-07 w=3e-07
mX_g5_MXPA1 nmset SN VDD VNW p12 l=1.3e-07 w=2.3e-07
MXP12 pm SN VDD VNW p12 l=1.3e-07 w=2.3e-07
MXP14 pm nmin net118 VNW p12 l=1.3e-07 w=3.3e-07
MXP9 net118 c VDD VNW p12 l=1.3e-07 w=3.3e-07
mXI19_MXPOEN pm cn XI19_p1 VNW p12 l=1.3e-07 w=2.2e-07
mXI19_MXPA1 XI19_p1 m VDD VNW p12 l=1.3e-07 w=2.2e-07
MXP11 m pm VDD VNW p12 l=1.3e-07 w=4.8e-07
MXP1 net142 nmset VDD VNW p12 l=1.3e-07 w=2.3e-07