* SPICE INPUT		Tue Jul 31 19:34:18 2018	labhb0
* EV_NETLIST Version AMD.64 Release B-2008.09.SP5.HF4.26013 2015/05/03
*
*The following line needed for Star-CR:
*CRU_OPT (KEEP_ELEMENTS "^[CR]D")
*
*The following line needed for CDL:
*.BIPOLAR

* Hierarchy Level 0

* Top of hierarchy  cell=labhb0
.subckt labhb0 GND QN Q D SN RN VDD G
M1 N_4 G GND GND mn15  l=0.13u w=0.17u m=1
M2 GND N_4 N_2 GND mn15  l=0.13u w=0.17u m=1
M3 N_7 N_2 N_6 GND mn15  l=0.13u w=0.17u m=1
M4 N_6 D N_5 GND mn15  l=0.13u w=0.18u m=1
M5 N_5 RN GND GND mn15  l=0.13u w=0.34u m=1
M6 N_18 N_4 N_7 GND mn15  l=0.13u w=0.17u m=1
M7 N_7 N_8 GND GND mn15  l=0.13u w=0.18u m=1
M8 GND SN N_8 GND mn15  l=0.13u w=0.18u m=1
M9 N_18 N_17 N_5 GND mn15  l=0.13u w=0.17u m=1
M10 QN N_17 GND GND mn15  l=0.13u w=0.26u m=1
M11 Q N_7 GND GND mn15  l=0.13u w=0.26u m=1
M12 N_17 N_7 GND GND mn15  l=0.13u w=0.18u m=1
M13 N_4 G VDD VDD mp15  l=0.13u w=0.42u m=1
M14 N_2 N_4 VDD VDD mp15  l=0.13u w=0.42u m=1
M15 N_22 D N_6 VDD mp15  l=0.13u w=0.33u m=1
M16 N_7 RN N_22 VDD mp15  l=0.13u w=0.3u m=1
M17 N_7 N_2 N_67 VDD mp15  l=0.13u w=0.17u m=1
M18 N_7 N_4 N_6 VDD mp15  l=0.13u w=0.42u m=1
M19 N_67 N_17 N_22 VDD mp15  l=0.13u w=0.17u m=1
M20 N_22 N_8 VDD VDD mp15  l=0.13u w=0.54u m=1
M21 N_8 SN VDD VDD mp15  l=0.13u w=0.26u m=1
M22 Q N_7 VDD VDD mp15  l=0.13u w=0.4u m=1
M23 N_17 N_7 VDD VDD mp15  l=0.13u w=0.26u m=1
M24 QN N_17 VDD VDD mp15  l=0.13u w=0.4u m=1
.ends labhb0
* SPICE INPUT		Tue Jul 31 19:34:32 2018	labhb1
* EV_NETLIST Version AMD.64 Release B-2008.09.SP5.HF4.26013 2015/05/03
*
*The following line needed for Star-CR:
*CRU_OPT (KEEP_ELEMENTS "^[CR]D")
*
*The following line needed for CDL:
*.BIPOLAR

* Hierarchy Level 0

* Top of hierarchy  cell=labhb1
.subckt labhb1 GND QN Q VDD SN RN D G
M1 N_4 G GND GND mn15  l=0.13u w=0.2u m=1
M2 GND N_4 N_2 GND mn15  l=0.13u w=0.2u m=1
M3 N_8 N_2 N_7 GND mn15  l=0.13u w=0.46u m=1
M4 N_10 D N_7 GND mn15  l=0.13u w=0.35u m=1
M5 N_10 RN GND GND mn15  l=0.13u w=0.35u m=1
M6 N_10 RN GND GND mn15  l=0.13u w=0.14u m=1
M7 N_8 N_4 N_18 GND mn15  l=0.13u w=0.17u m=1
M8 N_8 N_14 GND GND mn15  l=0.13u w=0.27u m=1
M9 N_14 SN GND GND mn15  l=0.13u w=0.14u m=1
M10 N_14 SN GND GND mn15  l=0.13u w=0.14u m=1
M11 QN N_17 GND GND mn15  l=0.13u w=0.43u m=1
M12 N_18 N_17 N_10 GND mn15  l=0.13u w=0.17u m=1
M13 Q N_8 GND GND mn15  l=0.13u w=0.46u m=1
M14 N_17 N_8 GND GND mn15  l=0.13u w=0.28u m=1
M15 N_4 G VDD VDD mp15  l=0.13u w=0.51u m=1
M16 N_2 N_4 VDD VDD mp15  l=0.13u w=0.51u m=1
M17 N_22 D N_7 VDD mp15  l=0.13u w=0.52u m=1
M18 N_8 RN N_22 VDD mp15  l=0.13u w=0.39u m=1
M19 N_8 N_2 N_71 VDD mp15  l=0.13u w=0.17u m=1
M20 N_8 N_4 N_7 VDD mp15  l=0.13u w=0.65u m=1
M21 N_71 N_17 N_22 VDD mp15  l=0.13u w=0.17u m=1
M22 N_22 N_14 VDD VDD mp15  l=0.13u w=0.63u m=1
M23 N_14 SN VDD VDD mp15  l=0.13u w=0.195u m=1
M24 N_14 SN VDD VDD mp15  l=0.13u w=0.195u m=1
M25 QN N_17 VDD VDD mp15  l=0.13u w=0.69u m=1
M26 Q N_8 VDD VDD mp15  l=0.13u w=0.69u m=1
M27 N_17 N_8 VDD VDD mp15  l=0.13u w=0.36u m=1
.ends labhb1
* SPICE INPUT		Tue Jul 31 19:34:45 2018	labhb2
* EV_NETLIST Version AMD.64 Release B-2008.09.SP5.HF4.26013 2015/05/03
*
*The following line needed for Star-CR:
*CRU_OPT (KEEP_ELEMENTS "^[CR]D")
*
*The following line needed for CDL:
*.BIPOLAR

* Hierarchy Level 0

* Top of hierarchy  cell=labhb2
.subckt labhb2 GND QN Q VDD SN RN D G
M1 N_4 G GND GND mn15  l=0.13u w=0.27u m=1
M2 GND N_4 N_2 GND mn15  l=0.13u w=0.17u m=1
M3 N_6 D N_5 GND mn15  l=0.13u w=0.225u m=1
M4 N_5 D N_6 GND mn15  l=0.13u w=0.235u m=1
M5 N_5 N_2 N_8 GND mn15  l=0.13u w=0.24u m=1
M6 N_8 N_2 N_5 GND mn15  l=0.13u w=0.21u m=1
M7 N_25 N_4 N_8 GND mn15  l=0.13u w=0.17u m=1
M8 GND RN N_6 GND mn15  l=0.13u w=0.23u m=1
M9 N_6 RN GND GND mn15  l=0.13u w=0.23u m=1
M10 N_25 N_23 N_6 GND mn15  l=0.13u w=0.17u m=1
M11 GND N_19 N_8 GND mn15  l=0.13u w=0.185u m=1
M12 N_8 N_19 GND GND mn15  l=0.13u w=0.185u m=1
M13 GND SN N_19 GND mn15  l=0.13u w=0.14u m=1
M14 N_19 SN GND GND mn15  l=0.13u w=0.14u m=1
M15 GND N_23 QN GND mn15  l=0.13u w=0.46u m=1
M16 GND N_23 QN GND mn15  l=0.13u w=0.43u m=1
M17 GND N_8 Q GND mn15  l=0.13u w=0.46u m=1
M18 GND N_8 Q GND mn15  l=0.13u w=0.46u m=1
M19 GND N_8 N_23 GND mn15  l=0.13u w=0.37u m=1
M20 N_4 G VDD VDD mp15  l=0.13u w=0.67u m=1
M21 N_2 N_4 VDD VDD mp15  l=0.13u w=0.42u m=1
M22 N_5 N_4 N_8 VDD mp15  l=0.13u w=0.56u m=1
M23 N_5 N_4 N_8 VDD mp15  l=0.13u w=0.56u m=1
M24 N_5 D N_29 VDD mp15  l=0.13u w=0.29u m=1
M25 N_5 D N_29 VDD mp15  l=0.13u w=0.29u m=1
M26 N_5 D N_29 VDD mp15  l=0.13u w=0.29u m=1
M27 N_5 D N_29 VDD mp15  l=0.13u w=0.29u m=1
M28 N_98 N_2 N_8 VDD mp15  l=0.13u w=0.17u m=1
M29 N_29 RN N_8 VDD mp15  l=0.13u w=0.54u m=1
M30 N_98 N_23 N_29 VDD mp15  l=0.13u w=0.17u m=1
M31 N_29 N_19 VDD VDD mp15  l=0.13u w=0.69u m=1
M32 N_29 N_19 VDD VDD mp15  l=0.13u w=0.69u m=1
M33 N_19 SN VDD VDD mp15  l=0.13u w=0.21u m=1
M34 VDD SN N_19 VDD mp15  l=0.13u w=0.21u m=1
M35 QN N_23 VDD VDD mp15  l=0.13u w=0.69u m=1
M36 VDD N_23 QN VDD mp15  l=0.13u w=0.69u m=1
M37 VDD N_8 Q VDD mp15  l=0.13u w=0.69u m=1
M38 VDD N_8 Q VDD mp15  l=0.13u w=0.69u m=1
M39 VDD N_8 N_23 VDD mp15  l=0.13u w=0.55u m=1
.ends labhb2
* SPICE INPUT		Tue Jul 31 19:34:58 2018	labhb3
* EV_NETLIST Version AMD.64 Release B-2008.09.SP5.HF4.26013 2015/05/03
*
*The following line needed for Star-CR:
*CRU_OPT (KEEP_ELEMENTS "^[CR]D")
*
*The following line needed for CDL:
*.BIPOLAR

* Hierarchy Level 0

* Top of hierarchy  cell=labhb3
.subckt labhb3 VDD QN Q GND SN RN D G
M1 N_4 G GND GND mn15  l=0.13u w=0.23u m=1
M2 GND N_4 N_3 GND mn15  l=0.13u w=0.17u m=1
M3 N_5 N_3 N_6 GND mn15  l=0.13u w=0.24u m=1
M4 N_5 N_3 N_6 GND mn15  l=0.13u w=0.24u m=1
M5 N_6 N_3 N_5 GND mn15  l=0.13u w=0.24u m=1
M6 N_34 D N_6 GND mn15  l=0.13u w=0.24u m=1
M7 N_34 D N_6 GND mn15  l=0.13u w=0.24u m=1
M8 N_6 D N_34 GND mn15  l=0.13u w=0.24u m=1
M9 N_37 N_4 N_5 GND mn15  l=0.13u w=0.17u m=1
M10 N_34 RN GND GND mn15  l=0.13u w=0.28u m=1
M11 N_34 RN GND GND mn15  l=0.13u w=0.27u m=1
M12 N_34 RN GND GND mn15  l=0.13u w=0.27u m=1
M13 N_21 SN GND GND mn15  l=0.13u w=0.16u m=1
M14 GND SN N_21 GND mn15  l=0.13u w=0.15u m=1
M15 QN N_27 GND GND mn15  l=0.13u w=0.455u m=1
M16 QN N_27 GND GND mn15  l=0.13u w=0.455u m=1
M17 N_34 N_27 N_37 GND mn15  l=0.13u w=0.17u m=1
M18 QN N_27 GND GND mn15  l=0.13u w=0.43u m=1
M19 GND N_21 N_5 GND mn15  l=0.13u w=0.185u m=1
M20 N_5 N_21 GND GND mn15  l=0.13u w=0.235u m=1
M21 Q N_5 GND GND mn15  l=0.13u w=0.46u m=1
M22 Q N_5 GND GND mn15  l=0.13u w=0.46u m=1
M23 Q N_5 GND GND mn15  l=0.13u w=0.46u m=1
M24 GND N_5 N_27 GND mn15  l=0.13u w=0.39u m=1
M25 N_4 G VDD VDD mp15  l=0.13u w=0.55u m=1
M26 N_3 N_4 VDD VDD mp15  l=0.13u w=0.42u m=1
M27 N_6 N_4 N_5 VDD mp15  l=0.13u w=0.56u m=1
M28 N_6 N_4 N_5 VDD mp15  l=0.13u w=0.56u m=1
M29 N_6 D N_8 VDD mp15  l=0.13u w=0.29u m=1
M30 N_6 D N_8 VDD mp15  l=0.13u w=0.29u m=1
M31 N_6 D N_8 VDD mp15  l=0.13u w=0.29u m=1
M32 N_6 D N_8 VDD mp15  l=0.13u w=0.29u m=1
M33 N_5 N_3 N_29 VDD mp15  l=0.13u w=0.17u m=1
M34 N_8 RN N_5 VDD mp15  l=0.13u w=0.58u m=1
M35 N_21 SN VDD VDD mp15  l=0.13u w=0.23u m=1
M36 VDD SN N_21 VDD mp15  l=0.13u w=0.23u m=1
M37 QN N_27 VDD VDD mp15  l=0.13u w=0.69u m=1
M38 QN N_27 VDD VDD mp15  l=0.13u w=0.69u m=1
M39 QN N_27 VDD VDD mp15  l=0.13u w=0.69u m=1
M40 N_29 N_27 N_8 VDD mp15  l=0.13u w=0.17u m=1
M41 N_8 N_21 VDD VDD mp15  l=0.13u w=0.46u m=1
M42 N_8 N_21 VDD VDD mp15  l=0.13u w=0.46u m=1
M43 VDD N_21 N_8 VDD mp15  l=0.13u w=0.48u m=1
M44 Q N_5 VDD VDD mp15  l=0.13u w=0.69u m=1
M45 Q N_5 VDD VDD mp15  l=0.13u w=0.69u m=1
M46 Q N_5 VDD VDD mp15  l=0.13u w=0.69u m=1
M47 N_27 N_5 VDD VDD mp15  l=0.13u w=0.58u m=1
.ends labhb3
* SPICE INPUT		Tue Jul 31 19:35:11 2018	lablb0
* EV_NETLIST Version AMD.64 Release B-2008.09.SP5.HF4.26013 2015/05/03
*
*The following line needed for Star-CR:
*CRU_OPT (KEEP_ELEMENTS "^[CR]D")
*
*The following line needed for CDL:
*.BIPOLAR

* Hierarchy Level 0

* Top of hierarchy  cell=lablb0
.subckt lablb0 GND Q QN SN D VDD RN GN
M1 N_4 GN GND GND mn15  l=0.13u w=0.17u m=1
M2 GND N_4 N_2 GND mn15  l=0.13u w=0.17u m=1
M3 Q N_12 GND GND mn15  l=0.13u w=0.26u m=1
M4 N_7 N_12 GND GND mn15  l=0.13u w=0.18u m=1
M5 QN N_7 GND GND mn15  l=0.13u w=0.26u m=1
M6 N_10 SN GND GND mn15  l=0.13u w=0.17u m=1
M7 N_18 N_7 N_14 GND mn15  l=0.13u w=0.17u m=1
M8 N_12 N_10 GND GND mn15  l=0.13u w=0.18u m=1
M9 N_18 N_2 N_12 GND mn15  l=0.13u w=0.17u m=1
M10 N_14 RN GND GND mn15  l=0.13u w=0.27u m=1
M11 N_12 N_4 N_15 GND mn15  l=0.13u w=0.27u m=1
M12 N_14 D N_15 GND mn15  l=0.13u w=0.27u m=1
M13 N_4 GN VDD VDD mp15  l=0.13u w=0.42u m=1
M14 VDD N_4 N_2 VDD mp15  l=0.13u w=0.42u m=1
M15 Q N_12 VDD VDD mp15  l=0.13u w=0.4u m=1
M16 N_7 N_12 VDD VDD mp15  l=0.13u w=0.26u m=1
M17 QN N_7 VDD VDD mp15  l=0.13u w=0.4u m=1
M18 N_10 SN VDD VDD mp15  l=0.13u w=0.26u m=1
M19 N_20 N_10 VDD VDD mp15  l=0.13u w=0.42u m=1
M20 N_20 D N_15 VDD mp15  l=0.13u w=0.42u m=1
M21 N_68 N_7 N_20 VDD mp15  l=0.13u w=0.17u m=1
M22 N_12 N_2 N_15 VDD mp15  l=0.13u w=0.4u m=1
M23 N_12 N_4 N_68 VDD mp15  l=0.13u w=0.17u m=1
M24 N_12 RN N_20 VDD mp15  l=0.13u w=0.3u m=1
.ends lablb0
* SPICE INPUT		Tue Jul 31 19:35:23 2018	lablb1
* EV_NETLIST Version AMD.64 Release B-2008.09.SP5.HF4.26013 2015/05/03
*
*The following line needed for Star-CR:
*CRU_OPT (KEEP_ELEMENTS "^[CR]D")
*
*The following line needed for CDL:
*.BIPOLAR

* Hierarchy Level 0

* Top of hierarchy  cell=lablb1
.subckt lablb1 GND Q QN VDD GN D RN SN
M1 N_4 GN GND GND mn15  l=0.13u w=0.17u m=1
M2 GND N_4 N_2 GND mn15  l=0.13u w=0.17u m=1
M3 N_7 N_4 N_5 GND mn15  l=0.13u w=0.37u m=1
M4 N_6 D N_5 GND mn15  l=0.13u w=0.37u m=1
M5 Q N_7 GND GND mn15  l=0.13u w=0.46u m=1
M6 N_10 N_7 GND GND mn15  l=0.13u w=0.28u m=1
M7 N_6 RN GND GND mn15  l=0.13u w=0.4u m=1
M8 N_18 N_2 N_7 GND mn15  l=0.13u w=0.17u m=1
M9 N_18 N_10 N_6 GND mn15  l=0.13u w=0.17u m=1
M10 N_7 N_17 GND GND mn15  l=0.13u w=0.26u m=1
M11 QN N_10 GND GND mn15  l=0.13u w=0.43u m=1
M12 N_17 SN GND GND mn15  l=0.13u w=0.19u m=1
M13 N_4 GN VDD VDD mp15  l=0.13u w=0.42u m=1
M14 VDD N_4 N_2 VDD mp15  l=0.13u w=0.42u m=1
M15 N_25 D N_5 VDD mp15  l=0.13u w=0.51u m=1
M16 N_7 RN N_25 VDD mp15  l=0.13u w=0.37u m=1
M17 N_7 N_4 N_69 VDD mp15  l=0.13u w=0.17u m=1
M18 N_7 N_2 N_5 VDD mp15  l=0.13u w=0.44u m=1
M19 N_7 N_2 N_5 VDD mp15  l=0.13u w=0.44u m=1
M20 N_69 N_10 N_25 VDD mp15  l=0.13u w=0.17u m=1
M21 N_25 N_17 VDD VDD mp15  l=0.13u w=0.62u m=1
M22 QN N_10 VDD VDD mp15  l=0.13u w=0.69u m=1
M23 N_17 SN VDD VDD mp15  l=0.13u w=0.3u m=1
M24 Q N_7 VDD VDD mp15  l=0.13u w=0.69u m=1
M25 N_10 N_7 VDD VDD mp15  l=0.13u w=0.36u m=1
.ends lablb1
* SPICE INPUT		Tue Jul 31 19:35:36 2018	lablb2
* EV_NETLIST Version AMD.64 Release B-2008.09.SP5.HF4.26013 2015/05/03
*
*The following line needed for Star-CR:
*CRU_OPT (KEEP_ELEMENTS "^[CR]D")
*
*The following line needed for CDL:
*.BIPOLAR

* Hierarchy Level 0

* Top of hierarchy  cell=lablb2
.subckt lablb2 GND QN Q D VDD SN RN GN
M1 N_4 GN GND GND mn15  l=0.13u w=0.22u m=1
M2 GND N_4 N_2 GND mn15  l=0.13u w=0.22u m=1
M3 N_7 RN GND GND mn15  l=0.13u w=0.36u m=1
M4 N_7 RN GND GND mn15  l=0.13u w=0.36u m=1
M5 N_23 N_2 N_5 GND mn15  l=0.13u w=0.17u m=1
M6 N_7 N_21 N_23 GND mn15  l=0.13u w=0.17u m=1
M7 N_7 D N_9 GND mn15  l=0.13u w=0.72u m=1
M8 N_5 N_4 N_9 GND mn15  l=0.13u w=0.63u m=1
M9 GND N_17 N_5 GND mn15  l=0.13u w=0.185u m=1
M10 N_5 N_17 GND GND mn15  l=0.13u w=0.185u m=1
M11 GND SN N_17 GND mn15  l=0.13u w=0.185u m=1
M12 N_17 SN GND GND mn15  l=0.13u w=0.185u m=1
M13 GND N_21 QN GND mn15  l=0.13u w=0.455u m=1
M14 GND N_21 QN GND mn15  l=0.13u w=0.435u m=1
M15 GND N_5 Q GND mn15  l=0.13u w=0.46u m=1
M16 GND N_5 Q GND mn15  l=0.13u w=0.46u m=1
M17 GND N_5 N_21 GND mn15  l=0.13u w=0.36u m=1
M18 N_4 GN VDD VDD mp15  l=0.13u w=0.55u m=1
M19 VDD N_4 N_2 VDD mp15  l=0.13u w=0.55u m=1
M20 N_5 RN N_28 VDD mp15  l=0.13u w=0.27u m=1
M21 N_5 RN N_28 VDD mp15  l=0.13u w=0.27u m=1
M22 N_88 N_4 N_5 VDD mp15  l=0.13u w=0.17u m=1
M23 N_28 N_21 N_88 VDD mp15  l=0.13u w=0.17u m=1
M24 N_9 D N_28 VDD mp15  l=0.13u w=0.63u m=1
M25 N_9 D N_28 VDD mp15  l=0.13u w=0.63u m=1
M26 N_5 N_2 N_9 VDD mp15  l=0.13u w=1.25u m=1
M27 N_28 N_17 VDD VDD mp15  l=0.13u w=0.63u m=1
M28 VDD N_17 N_28 VDD mp15  l=0.13u w=0.63u m=1
M29 N_17 SN VDD VDD mp15  l=0.13u w=0.55u m=1
M30 VDD N_21 QN VDD mp15  l=0.13u w=0.69u m=1
M31 QN N_21 VDD VDD mp15  l=0.13u w=0.69u m=1
M32 VDD N_5 Q VDD mp15  l=0.13u w=0.69u m=1
M33 VDD N_5 Q VDD mp15  l=0.13u w=0.69u m=1
M34 N_21 N_5 VDD VDD mp15  l=0.13u w=0.52u m=1
.ends lablb2
* SPICE INPUT		Tue Jul 31 19:35:49 2018	lablb3
* EV_NETLIST Version AMD.64 Release B-2008.09.SP5.HF4.26013 2015/05/03
*
*The following line needed for Star-CR:
*CRU_OPT (KEEP_ELEMENTS "^[CR]D")
*
*The following line needed for CDL:
*.BIPOLAR

* Hierarchy Level 0

* Top of hierarchy  cell=lablb3
.subckt lablb3 GND Q QN D VDD GN SN RN
M1 Q N_14 GND GND mn15  l=0.13u w=0.46u m=1
M2 Q N_14 GND GND mn15  l=0.13u w=0.46u m=1
M3 Q N_14 GND GND mn15  l=0.13u w=0.46u m=1
M4 GND N_14 N_5 GND mn15  l=0.13u w=0.285u m=1
M5 N_5 N_14 GND GND mn15  l=0.13u w=0.285u m=1
M6 N_10 GN GND GND mn15  l=0.13u w=0.27u m=1
M7 N_9 N_10 GND GND mn15  l=0.13u w=0.27u m=1
M8 QN N_5 GND GND mn15  l=0.13u w=0.455u m=1
M9 QN N_5 GND GND mn15  l=0.13u w=0.455u m=1
M10 QN N_5 GND GND mn15  l=0.13u w=0.43u m=1
M11 GND SN N_16 GND mn15  l=0.13u w=0.185u m=1
M12 N_16 SN GND GND mn15  l=0.13u w=0.185u m=1
M13 GND N_16 N_14 GND mn15  l=0.13u w=0.23u m=1
M14 N_14 N_16 GND GND mn15  l=0.13u w=0.23u m=1
M15 N_14 N_10 N_19 GND mn15  l=0.13u w=0.74u m=1
M16 N_20 D N_19 GND mn15  l=0.13u w=0.85u m=1
M17 N_20 N_5 N_26 GND mn15  l=0.13u w=0.17u m=1
M18 N_26 N_9 N_14 GND mn15  l=0.13u w=0.17u m=1
M19 N_20 RN GND GND mn15  l=0.13u w=0.425u m=1
M20 N_20 RN GND GND mn15  l=0.13u w=0.425u m=1
M21 QN N_5 VDD VDD mp15  l=0.13u w=0.69u m=1
M22 QN N_5 VDD VDD mp15  l=0.13u w=0.69u m=1
M23 QN N_5 VDD VDD mp15  l=0.13u w=0.69u m=1
M24 N_16 SN VDD VDD mp15  l=0.13u w=0.56u m=1
M25 N_31 N_16 VDD VDD mp15  l=0.13u w=0.63u m=1
M26 VDD N_16 N_31 VDD mp15  l=0.13u w=0.63u m=1
M27 N_31 N_5 N_100 VDD mp15  l=0.13u w=0.17u m=1
M28 N_14 RN N_31 VDD mp15  l=0.13u w=0.315u m=1
M29 N_14 RN N_31 VDD mp15  l=0.13u w=0.315u m=1
M30 N_100 N_10 N_14 VDD mp15  l=0.13u w=0.17u m=1
M31 N_10 GN VDD VDD mp15  l=0.13u w=0.67u m=1
M32 VDD N_10 N_9 VDD mp15  l=0.13u w=0.67u m=1
M33 Q N_14 VDD VDD mp15  l=0.13u w=0.69u m=1
M34 Q N_14 VDD VDD mp15  l=0.13u w=0.69u m=1
M35 Q N_14 VDD VDD mp15  l=0.13u w=0.69u m=1
M36 N_5 N_14 VDD VDD mp15  l=0.13u w=0.4u m=1
M37 N_5 N_14 VDD VDD mp15  l=0.13u w=0.4u m=1
M38 N_14 N_9 N_19 VDD mp15  l=0.13u w=1.34u m=1
M39 N_19 D N_31 VDD mp15  l=0.13u w=0.67u m=1
M40 N_19 D N_31 VDD mp15  l=0.13u w=0.67u m=1
.ends lablb3
* SPICE INPUT		Tue Jul 31 19:36:02 2018	lachb0
* EV_NETLIST Version AMD.64 Release B-2008.09.SP5.HF4.26013 2015/05/03
*
*The following line needed for Star-CR:
*CRU_OPT (KEEP_ELEMENTS "^[CR]D")
*
*The following line needed for CDL:
*.BIPOLAR

* Hierarchy Level 0

* Top of hierarchy  cell=lachb0
.subckt lachb0 GND QN Q VDD RN D G
M1 N_4 G GND GND mn15  l=0.13u w=0.17u m=1
M2 GND N_4 N_2 GND mn15  l=0.13u w=0.17u m=1
M3 N_7 N_2 N_5 GND mn15  l=0.13u w=0.18u m=1
M4 N_15 D N_7 GND mn15  l=0.13u w=0.18u m=1
M5 N_15 RN GND GND mn15  l=0.13u w=0.18u m=1
M6 N_16 RN GND GND mn15  l=0.13u w=0.17u m=1
M7 N_14 N_4 N_5 GND mn15  l=0.13u w=0.17u m=1
M8 N_16 N_13 N_14 GND mn15  l=0.13u w=0.17u m=1
M9 QN N_13 GND GND mn15  l=0.13u w=0.26u m=1
M10 Q N_5 GND GND mn15  l=0.13u w=0.26u m=1
M11 N_13 N_5 GND GND mn15  l=0.13u w=0.18u m=1
M12 N_4 G VDD VDD mp15  l=0.13u w=0.42u m=1
M13 N_2 N_4 VDD VDD mp15  l=0.13u w=0.42u m=1
M14 N_7 D VDD VDD mp15  l=0.13u w=0.37u m=1
M15 N_5 RN VDD VDD mp15  l=0.13u w=0.22u m=1
M16 N_25 N_2 N_5 VDD mp15  l=0.13u w=0.17u m=1
M17 N_7 N_4 N_5 VDD mp15  l=0.13u w=0.28u m=1
M18 N_25 N_13 VDD VDD mp15  l=0.13u w=0.17u m=1
M19 QN N_13 VDD VDD mp15  l=0.13u w=0.4u m=1
M20 Q N_5 VDD VDD mp15  l=0.13u w=0.4u m=1
M21 N_13 N_5 VDD VDD mp15  l=0.13u w=0.26u m=1
.ends lachb0
* SPICE INPUT		Tue Jul 31 19:36:15 2018	lachb1
* EV_NETLIST Version AMD.64 Release B-2008.09.SP5.HF4.26013 2015/05/03
*
*The following line needed for Star-CR:
*CRU_OPT (KEEP_ELEMENTS "^[CR]D")
*
*The following line needed for CDL:
*.BIPOLAR

* Hierarchy Level 0

* Top of hierarchy  cell=lachb1
.subckt lachb1 GND Q QN VDD G RN D
M1 N_4 G GND GND mn15  l=0.13u w=0.17u m=1
M2 GND N_4 N_2 GND mn15  l=0.13u w=0.17u m=1
M3 N_7 N_2 N_5 GND mn15  l=0.13u w=0.28u m=1
M4 N_15 D N_7 GND mn15  l=0.13u w=0.37u m=1
M5 N_15 RN GND GND mn15  l=0.13u w=0.37u m=1
M6 N_16 RN GND GND mn15  l=0.13u w=0.17u m=1
M7 N_14 N_4 N_5 GND mn15  l=0.13u w=0.17u m=1
M8 N_16 N_11 N_14 GND mn15  l=0.13u w=0.17u m=1
M9 Q N_5 GND GND mn15  l=0.13u w=0.46u m=1
M10 N_11 N_5 GND GND mn15  l=0.13u w=0.28u m=1
M11 QN N_11 GND GND mn15  l=0.13u w=0.46u m=1
M12 N_4 G VDD VDD mp15  l=0.13u w=0.42u m=1
M13 N_2 N_4 VDD VDD mp15  l=0.13u w=0.42u m=1
M14 N_7 D VDD VDD mp15  l=0.13u w=0.47u m=1
M15 N_5 RN VDD VDD mp15  l=0.13u w=0.37u m=1
M16 N_26 N_2 N_5 VDD mp15  l=0.13u w=0.17u m=1
M17 N_7 N_4 N_5 VDD mp15  l=0.13u w=0.42u m=1
M18 N_26 N_11 VDD VDD mp15  l=0.13u w=0.17u m=1
M19 QN N_11 VDD VDD mp15  l=0.13u w=0.69u m=1
M20 Q N_5 VDD VDD mp15  l=0.13u w=0.69u m=1
M21 N_11 N_5 VDD VDD mp15  l=0.13u w=0.37u m=1
.ends lachb1
* SPICE INPUT		Tue Jul 31 19:36:29 2018	lachb2
* EV_NETLIST Version AMD.64 Release B-2008.09.SP5.HF4.26013 2015/05/03
*
*The following line needed for Star-CR:
*CRU_OPT (KEEP_ELEMENTS "^[CR]D")
*
*The following line needed for CDL:
*.BIPOLAR

* Hierarchy Level 0

* Top of hierarchy  cell=lachb2
.subckt lachb2 GND QN Q VDD RN D G
M1 N_4 G GND GND mn15  l=0.13u w=0.17u m=1
M2 GND N_4 N_2 GND mn15  l=0.13u w=0.17u m=1
M3 N_6 N_2 N_5 GND mn15  l=0.13u w=0.225u m=1
M4 N_5 N_2 N_6 GND mn15  l=0.13u w=0.225u m=1
M5 N_17 D N_6 GND mn15  l=0.13u w=0.46u m=1
M6 N_17 RN GND GND mn15  l=0.13u w=0.46u m=1
M7 N_18 RN GND GND mn15  l=0.13u w=0.17u m=1
M8 N_16 N_4 N_5 GND mn15  l=0.13u w=0.17u m=1
M9 N_18 N_12 N_16 GND mn15  l=0.13u w=0.17u m=1
M10 GND N_5 Q GND mn15  l=0.13u w=0.46u m=1
M11 Q N_5 GND GND mn15  l=0.13u w=0.46u m=1
M12 GND N_5 N_12 GND mn15  l=0.13u w=0.36u m=1
M13 GND N_12 QN GND mn15  l=0.13u w=0.46u m=1
M14 GND N_12 QN GND mn15  l=0.13u w=0.46u m=1
M15 N_4 G VDD VDD mp15  l=0.13u w=0.42u m=1
M16 N_2 N_4 VDD VDD mp15  l=0.13u w=0.42u m=1
M17 N_6 N_4 N_5 VDD mp15  l=0.13u w=0.315u m=1
M18 N_5 N_4 N_6 VDD mp15  l=0.13u w=0.315u m=1
M19 N_6 D VDD VDD mp15  l=0.13u w=0.63u m=1
M20 N_5 RN VDD VDD mp15  l=0.13u w=0.5u m=1
M21 N_5 N_2 N_29 VDD mp15  l=0.13u w=0.17u m=1
M22 N_29 N_12 VDD VDD mp15  l=0.13u w=0.17u m=1
M23 Q N_5 VDD VDD mp15  l=0.13u w=0.69u m=1
M24 Q N_5 VDD VDD mp15  l=0.13u w=0.69u m=1
M25 N_12 N_5 VDD VDD mp15  l=0.13u w=0.52u m=1
M26 VDD N_12 QN VDD mp15  l=0.13u w=0.69u m=1
M27 VDD N_12 QN VDD mp15  l=0.13u w=0.69u m=1
.ends lachb2
* SPICE INPUT		Tue Jul 31 19:36:42 2018	lachb3
* EV_NETLIST Version AMD.64 Release B-2008.09.SP5.HF4.26013 2015/05/03
*
*The following line needed for Star-CR:
*CRU_OPT (KEEP_ELEMENTS "^[CR]D")
*
*The following line needed for CDL:
*.BIPOLAR

* Hierarchy Level 0

* Top of hierarchy  cell=lachb3
.subckt lachb3 GND QN Q VDD RN D G
M1 N_4 G GND GND mn15  l=0.13u w=0.17u m=1
M2 GND N_4 N_2 GND mn15  l=0.13u w=0.17u m=1
M3 N_23 D N_5 GND mn15  l=0.13u w=0.27u m=1
M4 N_5 D N_22 GND mn15  l=0.13u w=0.27u m=1
M5 N_21 D N_5 GND mn15  l=0.13u w=0.26u m=1
M6 N_22 RN GND GND mn15  l=0.13u w=0.27u m=1
M7 N_23 RN GND GND mn15  l=0.13u w=0.27u m=1
M8 N_21 RN GND GND mn15  l=0.13u w=0.26u m=1
M9 N_24 RN GND GND mn15  l=0.13u w=0.17u m=1
M10 N_25 N_4 N_6 GND mn15  l=0.13u w=0.17u m=1
M11 N_6 N_2 N_5 GND mn15  l=0.13u w=0.27u m=1
M12 N_6 N_2 N_5 GND mn15  l=0.13u w=0.27u m=1
M13 N_25 N_18 N_24 GND mn15  l=0.13u w=0.17u m=1
M14 QN N_18 GND GND mn15  l=0.13u w=0.46u m=1
M15 QN N_18 GND GND mn15  l=0.13u w=0.46u m=1
M16 QN N_18 GND GND mn15  l=0.13u w=0.46u m=1
M17 Q N_6 GND GND mn15  l=0.13u w=0.46u m=1
M18 GND N_6 N_18 GND mn15  l=0.13u w=0.46u m=1
M19 Q N_6 GND GND mn15  l=0.13u w=0.46u m=1
M20 Q N_6 GND GND mn15  l=0.13u w=0.46u m=1
M21 N_4 G VDD VDD mp15  l=0.13u w=0.42u m=1
M22 N_2 N_4 VDD VDD mp15  l=0.13u w=0.42u m=1
M23 N_5 D VDD VDD mp15  l=0.13u w=0.31u m=1
M24 N_5 D VDD VDD mp15  l=0.13u w=0.31u m=1
M25 VDD D N_5 VDD mp15  l=0.13u w=0.31u m=1
M26 N_5 D VDD VDD mp15  l=0.13u w=0.31u m=1
M27 N_6 RN VDD VDD mp15  l=0.13u w=0.31u m=1
M28 VDD RN N_6 VDD mp15  l=0.13u w=0.31u m=1
M29 N_6 N_4 N_5 VDD mp15  l=0.13u w=0.31u m=1
M30 N_5 N_4 N_6 VDD mp15  l=0.13u w=0.32u m=1
M31 N_97 N_2 N_6 VDD mp15  l=0.13u w=0.17u m=1
M32 QN N_18 VDD VDD mp15  l=0.13u w=0.69u m=1
M33 QN N_18 VDD VDD mp15  l=0.13u w=0.69u m=1
M34 QN N_18 VDD VDD mp15  l=0.13u w=0.69u m=1
M35 N_97 N_18 VDD VDD mp15  l=0.13u w=0.17u m=1
M36 Q N_6 VDD VDD mp15  l=0.13u w=0.69u m=1
M37 Q N_6 VDD VDD mp15  l=0.13u w=0.69u m=1
M38 Q N_6 VDD VDD mp15  l=0.13u w=0.69u m=1
M39 N_18 N_6 VDD VDD mp15  l=0.13u w=0.69u m=1
.ends lachb3
* SPICE INPUT		Tue Jul 31 19:36:56 2018	laclb0
* EV_NETLIST Version AMD.64 Release B-2008.09.SP5.HF4.26013 2015/05/03
*
*The following line needed for Star-CR:
*CRU_OPT (KEEP_ELEMENTS "^[CR]D")
*
*The following line needed for CDL:
*.BIPOLAR

* Hierarchy Level 0

* Top of hierarchy  cell=laclb0
.subckt laclb0 GND QN Q VDD RN D GN
M1 N_4 GN GND GND mn15  l=0.13u w=0.17u m=1
M2 GND N_4 N_2 GND mn15  l=0.13u w=0.17u m=1
M3 N_7 N_4 N_5 GND mn15  l=0.13u w=0.17u m=1
M4 N_15 D N_7 GND mn15  l=0.13u w=0.26u m=1
M5 N_15 RN GND GND mn15  l=0.13u w=0.26u m=1
M6 N_16 RN GND GND mn15  l=0.13u w=0.17u m=1
M7 N_14 N_2 N_5 GND mn15  l=0.13u w=0.17u m=1
M8 N_16 N_13 N_14 GND mn15  l=0.13u w=0.17u m=1
M9 QN N_13 GND GND mn15  l=0.13u w=0.26u m=1
M10 Q N_5 GND GND mn15  l=0.13u w=0.26u m=1
M11 N_13 N_5 GND GND mn15  l=0.13u w=0.18u m=1
M12 Q N_5 VDD VDD mp15  l=0.13u w=0.4u m=1
M13 N_13 N_5 VDD VDD mp15  l=0.13u w=0.26u m=1
M14 N_4 GN VDD VDD mp15  l=0.13u w=0.42u m=1
M15 N_2 N_4 VDD VDD mp15  l=0.13u w=0.42u m=1
M16 N_7 D VDD VDD mp15  l=0.13u w=0.38u m=1
M17 N_26 N_4 N_5 VDD mp15  l=0.13u w=0.17u m=1
M18 N_5 RN VDD VDD mp15  l=0.13u w=0.26u m=1
M19 N_7 N_2 N_5 VDD mp15  l=0.13u w=0.17u m=1
M20 N_26 N_13 VDD VDD mp15  l=0.13u w=0.17u m=1
M21 QN N_13 VDD VDD mp15  l=0.13u w=0.4u m=1
.ends laclb0
* SPICE INPUT		Tue Jul 31 19:37:09 2018	laclb1
* EV_NETLIST Version AMD.64 Release B-2008.09.SP5.HF4.26013 2015/05/03
*
*The following line needed for Star-CR:
*CRU_OPT (KEEP_ELEMENTS "^[CR]D")
*
*The following line needed for CDL:
*.BIPOLAR

* Hierarchy Level 0

* Top of hierarchy  cell=laclb1
.subckt laclb1 GND QN Q RN D VDD GN
M1 N_4 GN GND GND mn15  l=0.13u w=0.17u m=1
M2 GND N_4 N_2 GND mn15  l=0.13u w=0.17u m=1
M3 N_7 N_4 N_5 GND mn15  l=0.13u w=0.28u m=1
M4 N_15 D N_7 GND mn15  l=0.13u w=0.37u m=1
M5 N_15 RN GND GND mn15  l=0.13u w=0.37u m=1
M6 N_16 RN GND GND mn15  l=0.13u w=0.17u m=1
M7 N_14 N_2 N_5 GND mn15  l=0.13u w=0.17u m=1
M8 N_16 N_13 N_14 GND mn15  l=0.13u w=0.17u m=1
M9 QN N_13 GND GND mn15  l=0.13u w=0.46u m=1
M10 Q N_5 GND GND mn15  l=0.13u w=0.46u m=1
M11 N_13 N_5 GND GND mn15  l=0.13u w=0.28u m=1
M12 N_4 GN VDD VDD mp15  l=0.13u w=0.42u m=1
M13 N_2 N_4 VDD VDD mp15  l=0.13u w=0.42u m=1
M14 VDD D N_7 VDD mp15  l=0.13u w=0.39u m=1
M15 N_5 RN VDD VDD mp15  l=0.13u w=0.37u m=1
M16 N_5 N_4 N_25 VDD mp15  l=0.13u w=0.17u m=1
M17 N_5 N_2 N_7 VDD mp15  l=0.13u w=0.42u m=1
M18 N_25 N_13 VDD VDD mp15  l=0.13u w=0.17u m=1
M19 QN N_13 VDD VDD mp15  l=0.13u w=0.69u m=1
M20 Q N_5 VDD VDD mp15  l=0.13u w=0.69u m=1
M21 N_13 N_5 VDD VDD mp15  l=0.13u w=0.37u m=1
.ends laclb1
* SPICE INPUT		Tue Jul 31 19:37:23 2018	laclb2
* EV_NETLIST Version AMD.64 Release B-2008.09.SP5.HF4.26013 2015/05/03
*
*The following line needed for Star-CR:
*CRU_OPT (KEEP_ELEMENTS "^[CR]D")
*
*The following line needed for CDL:
*.BIPOLAR

* Hierarchy Level 0

* Top of hierarchy  cell=laclb2
.subckt laclb2 GND QN Q VDD RN D GN
M1 N_4 GN GND GND mn15  l=0.13u w=0.2u m=1
M2 GND N_4 N_2 GND mn15  l=0.13u w=0.17u m=1
M3 N_5 N_4 N_6 GND mn15  l=0.13u w=0.41u m=1
M4 N_16 D N_6 GND mn15  l=0.13u w=0.46u m=1
M5 N_16 RN GND GND mn15  l=0.13u w=0.46u m=1
M6 N_17 RN GND GND mn15  l=0.13u w=0.17u m=1
M7 N_15 N_2 N_5 GND mn15  l=0.13u w=0.17u m=1
M8 N_17 N_11 N_15 GND mn15  l=0.13u w=0.17u m=1
M9 GND N_5 Q GND mn15  l=0.13u w=0.46u m=1
M10 Q N_5 GND GND mn15  l=0.13u w=0.46u m=1
M11 GND N_5 N_11 GND mn15  l=0.13u w=0.37u m=1
M12 GND N_11 QN GND mn15  l=0.13u w=0.46u m=1
M13 GND N_11 QN GND mn15  l=0.13u w=0.46u m=1
M14 N_4 GN VDD VDD mp15  l=0.13u w=0.51u m=1
M15 VDD N_4 N_2 VDD mp15  l=0.13u w=0.42u m=1
M16 N_5 N_2 N_6 VDD mp15  l=0.13u w=0.59u m=1
M17 VDD D N_6 VDD mp15  l=0.13u w=0.56u m=1
M18 N_5 RN VDD VDD mp15  l=0.13u w=0.54u m=1
M19 N_5 N_4 N_27 VDD mp15  l=0.13u w=0.17u m=1
M20 N_27 N_11 VDD VDD mp15  l=0.13u w=0.17u m=1
M21 Q N_5 VDD VDD mp15  l=0.13u w=0.69u m=1
M22 Q N_5 VDD VDD mp15  l=0.13u w=0.69u m=1
M23 N_11 N_5 VDD VDD mp15  l=0.13u w=0.55u m=1
M24 VDD N_11 QN VDD mp15  l=0.13u w=0.69u m=1
M25 VDD N_11 QN VDD mp15  l=0.13u w=0.69u m=1
.ends laclb2
* SPICE INPUT		Tue Jul 31 19:37:36 2018	laclb3
* EV_NETLIST Version AMD.64 Release B-2008.09.SP5.HF4.26013 2015/05/03
*
*The following line needed for Star-CR:
*CRU_OPT (KEEP_ELEMENTS "^[CR]D")
*
*The following line needed for CDL:
*.BIPOLAR

* Hierarchy Level 0

* Top of hierarchy  cell=laclb3
.subckt laclb3 GND QN Q VDD RN D GN
M1 N_4 GN GND GND mn15  l=0.13u w=0.2u m=1
M2 GND N_4 N_2 GND mn15  l=0.13u w=0.2u m=1
M3 N_22 D N_5 GND mn15  l=0.13u w=0.49u m=1
M4 N_5 D N_21 GND mn15  l=0.13u w=0.27u m=1
M5 N_22 RN GND GND mn15  l=0.13u w=0.49u m=1
M6 GND RN N_21 GND mn15  l=0.13u w=0.27u m=1
M7 N_23 RN GND GND mn15  l=0.13u w=0.17u m=1
M8 N_24 N_2 N_8 GND mn15  l=0.13u w=0.17u m=1
M9 N_8 N_4 N_5 GND mn15  l=0.13u w=0.26u m=1
M10 N_5 N_4 N_8 GND mn15  l=0.13u w=0.19u m=1
M11 N_24 N_18 N_23 GND mn15  l=0.13u w=0.17u m=1
M12 QN N_18 GND GND mn15  l=0.13u w=0.46u m=1
M13 QN N_18 GND GND mn15  l=0.13u w=0.46u m=1
M14 QN N_18 GND GND mn15  l=0.13u w=0.46u m=1
M15 Q N_8 GND GND mn15  l=0.13u w=0.46u m=1
M16 Q N_8 GND GND mn15  l=0.13u w=0.46u m=1
M17 Q N_8 GND GND mn15  l=0.13u w=0.46u m=1
M18 GND N_8 N_18 GND mn15  l=0.13u w=0.41u m=1
M19 N_4 GN VDD VDD mp15  l=0.13u w=0.51u m=1
M20 N_2 N_4 VDD VDD mp15  l=0.13u w=0.51u m=1
M21 N_5 D VDD VDD mp15  l=0.13u w=0.23u m=1
M22 VDD D N_5 VDD mp15  l=0.13u w=0.23u m=1
M23 VDD D N_5 VDD mp15  l=0.13u w=0.24u m=1
M24 N_8 RN VDD VDD mp15  l=0.13u w=0.31u m=1
M25 VDD RN N_8 VDD mp15  l=0.13u w=0.31u m=1
M26 N_5 N_2 N_8 VDD mp15  l=0.13u w=0.32u m=1
M27 N_5 N_2 N_8 VDD mp15  l=0.13u w=0.32u m=1
M28 N_91 N_4 N_8 VDD mp15  l=0.13u w=0.17u m=1
M29 QN N_18 VDD VDD mp15  l=0.13u w=0.69u m=1
M30 QN N_18 VDD VDD mp15  l=0.13u w=0.69u m=1
M31 QN N_18 VDD VDD mp15  l=0.13u w=0.69u m=1
M32 N_91 N_18 VDD VDD mp15  l=0.13u w=0.17u m=1
M33 Q N_8 VDD VDD mp15  l=0.13u w=0.69u m=1
M34 Q N_8 VDD VDD mp15  l=0.13u w=0.69u m=1
M35 Q N_8 VDD VDD mp15  l=0.13u w=0.69u m=1
M36 N_18 N_8 VDD VDD mp15  l=0.13u w=0.63u m=1
.ends laclb3
* SPICE INPUT		Tue Jul 31 19:37:49 2018	lanhb0
* EV_NETLIST Version AMD.64 Release B-2008.09.SP5.HF4.26013 2015/05/03
*
*The following line needed for Star-CR:
*CRU_OPT (KEEP_ELEMENTS "^[CR]D")
*
*The following line needed for CDL:
*.BIPOLAR

* Hierarchy Level 0

* Top of hierarchy  cell=lanhb0
.subckt lanhb0 VDD QN Q G GND D
M1 N_19 D GND GND mn15  l=0.13u w=0.18u m=1
M2 N_19 N_5 N_6 GND mn15  l=0.13u w=0.18u m=1
M3 N_20 N_10 N_6 GND mn15  l=0.13u w=0.17u m=1
M4 GND N_10 N_5 GND mn15  l=0.13u w=0.17u m=1
M5 QN N_9 GND GND mn15  l=0.13u w=0.26u m=1
M6 N_20 N_9 GND GND mn15  l=0.13u w=0.17u m=1
M7 Q N_6 GND GND mn15  l=0.13u w=0.26u m=1
M8 N_9 N_6 GND GND mn15  l=0.13u w=0.18u m=1
M9 GND G N_10 GND mn15  l=0.13u w=0.17u m=1
M10 N_12 D VDD VDD mp15  l=0.13u w=0.33u m=1
M11 N_13 N_5 N_6 VDD mp15  l=0.13u w=0.17u m=1
M12 N_5 N_10 VDD VDD mp15  l=0.13u w=0.42u m=1
M13 N_12 N_10 N_6 VDD mp15  l=0.13u w=0.33u m=1
M14 N_13 N_9 VDD VDD mp15  l=0.13u w=0.17u m=1
M15 QN N_9 VDD VDD mp15  l=0.13u w=0.4u m=1
M16 Q N_6 VDD VDD mp15  l=0.13u w=0.4u m=1
M17 N_9 N_6 VDD VDD mp15  l=0.13u w=0.26u m=1
M18 VDD G N_10 VDD mp15  l=0.13u w=0.42u m=1
.ends lanhb0
* SPICE INPUT		Tue Jul 31 19:38:02 2018	lanhb1
* EV_NETLIST Version AMD.64 Release B-2008.09.SP5.HF4.26013 2015/05/03
*
*The following line needed for Star-CR:
*CRU_OPT (KEEP_ELEMENTS "^[CR]D")
*
*The following line needed for CDL:
*.BIPOLAR

* Hierarchy Level 0

* Top of hierarchy  cell=lanhb1
.subckt lanhb1 GND QN Q VDD D G
M1 GND G N_2 GND mn15  l=0.13u w=0.2u m=1
M2 N_12 D GND GND mn15  l=0.13u w=0.28u m=1
M3 N_12 N_6 N_8 GND mn15  l=0.13u w=0.28u m=1
M4 GND N_2 N_6 GND mn15  l=0.13u w=0.2u m=1
M5 N_13 N_2 N_8 GND mn15  l=0.13u w=0.17u m=1
M6 QN N_11 GND GND mn15  l=0.13u w=0.46u m=1
M7 N_13 N_11 GND GND mn15  l=0.13u w=0.17u m=1
M8 Q N_8 GND GND mn15  l=0.13u w=0.46u m=1
M9 N_11 N_8 GND GND mn15  l=0.13u w=0.28u m=1
M10 VDD G N_2 VDD mp15  l=0.13u w=0.51u m=1
M11 N_21 D VDD VDD mp15  l=0.13u w=0.42u m=1
M12 N_22 N_6 N_8 VDD mp15  l=0.13u w=0.17u m=1
M13 N_6 N_2 VDD VDD mp15  l=0.13u w=0.51u m=1
M14 N_21 N_2 N_8 VDD mp15  l=0.13u w=0.42u m=1
M15 QN N_11 VDD VDD mp15  l=0.13u w=0.69u m=1
M16 N_22 N_11 VDD VDD mp15  l=0.13u w=0.17u m=1
M17 Q N_8 VDD VDD mp15  l=0.13u w=0.69u m=1
M18 N_11 N_8 VDD VDD mp15  l=0.13u w=0.41u m=1
.ends lanhb1
* SPICE INPUT		Tue Jul 31 19:38:14 2018	lanhb2
* EV_NETLIST Version AMD.64 Release B-2008.09.SP5.HF4.26013 2015/05/03
*
*The following line needed for Star-CR:
*CRU_OPT (KEEP_ELEMENTS "^[CR]D")
*
*The following line needed for CDL:
*.BIPOLAR

* Hierarchy Level 0

* Top of hierarchy  cell=lanhb2
.subckt lanhb2 VDD QN Q G D GND
M1 GND N_3 N_13 GND mn15  l=0.13u w=0.17u m=1
M2 N_64 N_3 N_6 GND mn15  l=0.13u w=0.17u m=1
M3 N_63 D GND GND mn15  l=0.13u w=0.27u m=1
M4 N_63 N_13 N_6 GND mn15  l=0.13u w=0.27u m=1
M5 N_6 N_13 N_62 GND mn15  l=0.13u w=0.27u m=1
M6 N_62 D GND GND mn15  l=0.13u w=0.27u m=1
M7 QN N_5 GND GND mn15  l=0.13u w=0.46u m=1