* SPICE INPUT		Tue Jul 31 20:20:46 2018	sdanrq0
* EV_NETLIST Version AMD.64 Release B-2008.09.SP5.HF4.26013 2015/05/03
*
*The following line needed for Star-CR:
*CRU_OPT (KEEP_ELEMENTS "^[CR]D")
*
*The following line needed for CDL:
*.BIPOLAR

* Hierarchy Level 0

* Top of hierarchy  cell=sdanrq0
.subckt sdanrq0 GND Q VDD CK SE SI D1 D0
M1 N_18 D0 GND GND mn15  l=0.13u w=0.26u m=1
M2 N_5 D1 N_18 GND mn15  l=0.13u w=0.26u m=1
M3 N_19 SE N_6 GND mn15  l=0.13u w=0.24u m=1
M4 N_6 N_2 N_5 GND mn15  l=0.13u w=0.28u m=1
M5 N_19 SI GND GND mn15  l=0.13u w=0.24u m=1
M6 GND SE N_2 GND mn15  l=0.13u w=0.18u m=1
M7 GND CK N_8 GND mn15  l=0.13u w=0.17u m=1
M8 N_20 N_6 GND GND mn15  l=0.13u w=0.28u m=1
M9 N_20 N_8 N_10 GND mn15  l=0.13u w=0.28u m=1
M10 N_21 N_7 N_10 GND mn15  l=0.13u w=0.17u m=1
M11 GND N_13 N_21 GND mn15  l=0.13u w=0.17u m=1
M12 N_13 N_10 GND GND mn15  l=0.13u w=0.28u m=1
M13 N_13 N_7 N_12 GND mn15  l=0.13u w=0.28u m=1
M14 N_22 N_17 GND GND mn15  l=0.13u w=0.17u m=1
M15 N_22 N_8 N_12 GND mn15  l=0.13u w=0.17u m=1
M16 GND N_8 N_7 GND mn15  l=0.13u w=0.17u m=1
M17 Q N_12 GND GND mn15  l=0.13u w=0.26u m=1
M18 N_17 N_12 GND GND mn15  l=0.13u w=0.18u m=1
M19 VDD D0 N_5 VDD mp15  l=0.13u w=0.35u m=1
M20 N_5 D1 VDD VDD mp15  l=0.13u w=0.35u m=1
M21 N_38 N_2 N_6 VDD mp15  l=0.13u w=0.37u m=1
M22 N_38 SI VDD VDD mp15  l=0.13u w=0.37u m=1
M23 N_6 SE N_5 VDD mp15  l=0.13u w=0.42u m=1
M24 N_2 SE VDD VDD mp15  l=0.13u w=0.28u m=1
M25 N_8 CK VDD VDD mp15  l=0.13u w=0.42u m=1
M26 N_39 N_6 VDD VDD mp15  l=0.13u w=0.42u m=1
M27 N_10 N_7 N_39 VDD mp15  l=0.13u w=0.42u m=1
M28 N_40 N_8 N_10 VDD mp15  l=0.13u w=0.17u m=1
M29 VDD N_13 N_40 VDD mp15  l=0.13u w=0.17u m=1
M30 N_13 N_10 VDD VDD mp15  l=0.13u w=0.42u m=1
M31 N_41 N_7 N_12 VDD mp15  l=0.13u w=0.17u m=1
M32 N_41 N_17 VDD VDD mp15  l=0.13u w=0.17u m=1
M33 N_7 N_8 VDD VDD mp15  l=0.13u w=0.42u m=1
M34 N_12 N_8 N_13 VDD mp15  l=0.13u w=0.42u m=1
M35 Q N_12 VDD VDD mp15  l=0.13u w=0.4u m=1
M36 N_17 N_12 VDD VDD mp15  l=0.13u w=0.26u m=1
.ends sdanrq0
* SPICE INPUT		Tue Jul 31 20:20:59 2018	sdanrq1
* EV_NETLIST Version AMD.64 Release B-2008.09.SP5.HF4.26013 2015/05/03
*
*The following line needed for Star-CR:
*CRU_OPT (KEEP_ELEMENTS "^[CR]D")
*
*The following line needed for CDL:
*.BIPOLAR

* Hierarchy Level 0

* Top of hierarchy  cell=sdanrq1
.subckt sdanrq1 GND Q CK SE D1 SI D0 VDD
M1 N_18 D0 GND GND mn15  l=0.13u w=0.26u m=1
M2 N_5 D1 N_18 GND mn15  l=0.13u w=0.26u m=1
M3 N_6 N_2 N_5 GND mn15  l=0.13u w=0.28u m=1
M4 N_19 SE N_6 GND mn15  l=0.13u w=0.24u m=1
M5 N_19 SI GND GND mn15  l=0.13u w=0.24u m=1
M6 GND SE N_2 GND mn15  l=0.13u w=0.18u m=1
M7 GND CK N_9 GND mn15  l=0.13u w=0.2u m=1
M8 N_20 N_9 N_11 GND mn15  l=0.13u w=0.28u m=1
M9 N_21 N_7 N_11 GND mn15  l=0.13u w=0.17u m=1
M10 N_20 N_6 GND GND mn15  l=0.13u w=0.28u m=1
M11 GND N_9 N_7 GND mn15  l=0.13u w=0.2u m=1
M12 N_22 N_9 N_14 GND mn15  l=0.13u w=0.17u m=1
M13 N_22 N_17 GND GND mn15  l=0.13u w=0.17u m=1
M14 GND N_13 N_21 GND mn15  l=0.13u w=0.17u m=1
M15 N_13 N_11 GND GND mn15  l=0.13u w=0.36u m=1
M16 N_14 N_7 N_13 GND mn15  l=0.13u w=0.36u m=1
M17 Q N_14 GND GND mn15  l=0.13u w=0.46u m=1
M18 N_17 N_14 GND GND mn15  l=0.13u w=0.28u m=1
M19 VDD D0 N_5 VDD mp15  l=0.13u w=0.35u m=1
M20 N_5 D1 VDD VDD mp15  l=0.13u w=0.35u m=1
M21 N_38 N_2 N_6 VDD mp15  l=0.13u w=0.37u m=1
M22 N_38 SI VDD VDD mp15  l=0.13u w=0.37u m=1
M23 N_6 SE N_5 VDD mp15  l=0.13u w=0.42u m=1
M24 VDD SE N_2 VDD mp15  l=0.13u w=0.28u m=1
M25 N_9 CK VDD VDD mp15  l=0.13u w=0.51u m=1
M26 N_11 N_7 N_39 VDD mp15  l=0.13u w=0.42u m=1
M27 N_39 N_6 VDD VDD mp15  l=0.13u w=0.42u m=1
M28 N_13 N_9 N_14 VDD mp15  l=0.13u w=0.52u m=1
M29 N_7 N_9 VDD VDD mp15  l=0.13u w=0.51u m=1
M30 N_41 N_17 VDD VDD mp15  l=0.13u w=0.17u m=1
M31 N_41 N_7 N_14 VDD mp15  l=0.13u w=0.17u m=1
M32 N_40 N_9 N_11 VDD mp15  l=0.13u w=0.17u m=1
M33 VDD N_13 N_40 VDD mp15  l=0.13u w=0.17u m=1
M34 N_13 N_11 VDD VDD mp15  l=0.13u w=0.52u m=1
M35 Q N_14 VDD VDD mp15  l=0.13u w=0.69u m=1
M36 N_17 N_14 VDD VDD mp15  l=0.13u w=0.35u m=1
.ends sdanrq1
* SPICE INPUT		Tue Jul 31 20:21:12 2018	sdanrq2
* EV_NETLIST Version AMD.64 Release B-2008.09.SP5.HF4.26013 2015/05/03
*
*The following line needed for Star-CR:
*CRU_OPT (KEEP_ELEMENTS "^[CR]D")
*
*The following line needed for CDL:
*.BIPOLAR

* Hierarchy Level 0

* Top of hierarchy  cell=sdanrq2
.subckt sdanrq2 GND Q CK SE SI VDD D1 D0
M1 N_2 D1 N_20 GND mn15  l=0.13u w=0.46u m=1
M2 GND D0 N_20 GND mn15  l=0.13u w=0.46u m=1
M3 GND N_14 Q GND mn15  l=0.13u w=0.46u m=1
M4 GND N_14 Q GND mn15  l=0.13u w=0.46u m=1
M5 GND N_14 N_6 GND mn15  l=0.13u w=0.37u m=1
M6 N_23 N_9 N_14 GND mn15  l=0.13u w=0.17u m=1
M7 GND N_9 N_8 GND mn15  l=0.13u w=0.23u m=1
M8 N_14 N_8 N_13 GND mn15  l=0.13u w=0.41u m=1
M9 GND N_13 N_22 GND mn15  l=0.13u w=0.17u m=1
M10 N_23 N_6 GND GND mn15  l=0.13u w=0.17u m=1
M11 N_13 N_11 GND GND mn15  l=0.13u w=0.41u m=1
M12 N_22 N_8 N_11 GND mn15  l=0.13u w=0.17u m=1
M13 GND CK N_9 GND mn15  l=0.13u w=0.28u m=1
M14 N_21 N_9 N_11 GND mn15  l=0.13u w=0.41u m=1
M15 N_21 N_18 GND GND mn15  l=0.13u w=0.41u m=1
M16 N_24 SE N_18 GND mn15  l=0.13u w=0.28u m=1
M17 GND SE N_16 GND mn15  l=0.13u w=0.24u m=1
M18 N_2 N_16 N_18 GND mn15  l=0.13u w=0.41u m=1
M19 N_24 SI GND GND mn15  l=0.13u w=0.28u m=1
M20 Q N_14 VDD VDD mp15  l=0.13u w=0.69u m=1
M21 VDD N_14 Q VDD mp15  l=0.13u w=0.69u m=1
M22 N_6 N_14 VDD VDD mp15  l=0.13u w=0.55u m=1
M23 N_14 N_9 N_13 VDD mp15  l=0.13u w=0.63u m=1
M24 VDD N_9 N_8 VDD mp15  l=0.13u w=0.55u m=1
M25 N_98 N_8 N_14 VDD mp15  l=0.13u w=0.17u m=1
M26 N_98 N_6 VDD VDD mp15  l=0.13u w=0.17u m=1
M27 N_100 N_13 VDD VDD mp15  l=0.13u w=0.17u m=1
M28 N_13 N_11 VDD VDD mp15  l=0.13u w=0.315u m=1
M29 N_13 N_11 VDD VDD mp15  l=0.13u w=0.315u m=1
M30 N_99 N_8 N_11 VDD mp15  l=0.13u w=0.62u m=1
M31 N_100 N_9 N_11 VDD mp15  l=0.13u w=0.17u m=1
M32 N_9 CK VDD VDD mp15  l=0.13u w=0.67u m=1
M33 N_99 N_18 VDD VDD mp15  l=0.13u w=0.62u m=1
M34 VDD SE N_16 VDD mp15  l=0.13u w=0.37u m=1
M35 N_2 D1 VDD VDD mp15  l=0.13u w=0.61u m=1
M36 N_101 N_16 N_18 VDD mp15  l=0.13u w=0.42u m=1
M37 VDD D0 N_2 VDD mp15  l=0.13u w=0.61u m=1
M38 N_101 SI VDD VDD mp15  l=0.13u w=0.42u m=1
M39 N_18 SE N_2 VDD mp15  l=0.13u w=0.63u m=1
.ends sdanrq2
* SPICE INPUT		Tue Jul 31 20:21:25 2018	sdbfb0
* EV_NETLIST Version AMD.64 Release B-2008.09.SP5.HF4.26013 2015/05/03
*
*The following line needed for Star-CR:
*CRU_OPT (KEEP_ELEMENTS "^[CR]D")
*
*The following line needed for CDL:
*.BIPOLAR

* Hierarchy Level 0

* Top of hierarchy  cell=sdbfb0
.subckt sdbfb0 VDD Q QN SN RN GND CKN SI D SE
M1 N_110 D GND GND mn15  l=0.13u w=0.26u m=1
M2 N_110 N_5 N_6 GND mn15  l=0.13u w=0.26u m=1
M3 N_111 SE N_6 GND mn15  l=0.13u w=0.18u m=1
M4 GND SE N_5 GND mn15  l=0.13u w=0.18u m=1
M5 N_111 SI GND GND mn15  l=0.13u w=0.18u m=1
M6 GND CKN N_3 GND mn15  l=0.13u w=0.18u m=1
M7 N_112 N_12 GND GND mn15  l=0.13u w=0.17u m=1
M8 GND N_3 N_7 GND mn15  l=0.13u w=0.17u m=1
M9 N_112 N_3 N_10 GND mn15  l=0.13u w=0.17u m=1
M10 N_10 N_7 N_6 GND mn15  l=0.13u w=0.18u m=1
M11 N_12 N_10 N_36 GND mn15  l=0.13u w=0.14u m=2
*M12 N_36 N_10 N_12 GND mn15  l=0.13u w=0.14u m=1
M13 N_14 N_3 N_12 GND mn15  l=0.13u w=0.28u m=1
M14 N_113 N_7 N_14 GND mn15  l=0.13u w=0.17u m=1
M15 N_36 N_21 N_14 GND mn15  l=0.13u w=0.2u m=1
M16 N_113 N_26 N_36 GND mn15  l=0.13u w=0.17u m=1
M17 QN N_14 GND GND mn15  l=0.13u w=0.26u m=1
M18 N_26 N_14 GND GND mn15  l=0.13u w=0.18u m=1
M19 GND RN N_21 GND mn15  l=0.13u w=0.18u m=1
M20 N_36 SN GND GND mn15  l=0.13u w=0.18u m=2
*M20 N_36 SN GND GND mn15  l=0.13u w=0.19u m=1
*M21 N_36 SN GND GND mn15  l=0.13u w=0.17u m=1
M22 Q N_26 GND GND mn15  l=0.13u w=0.26u m=1
M23 N_27 D VDD VDD mp15  l=0.13u w=0.37u m=1
M24 N_27 SE N_6 VDD mp15  l=0.13u w=0.37u m=1
M25 N_5 SE VDD VDD mp15  l=0.13u w=0.28u m=1
M26 N_28 N_5 N_6 VDD mp15  l=0.13u w=0.28u m=1
M27 N_28 SI VDD VDD mp15  l=0.13u w=0.28u m=1
M28 N_3 CKN VDD VDD mp15  l=0.13u w=0.46u m=1
M29 N_29 N_12 VDD VDD mp15  l=0.13u w=0.17u m=1
M30 N_10 N_3 N_6 VDD mp15  l=0.13u w=0.5u m=1
M31 VDD N_3 N_7 VDD mp15  l=0.13u w=0.42u m=1
M32 N_29 N_7 N_10 VDD mp15  l=0.13u w=0.17u m=1
M33 N_12 N_10 N_11 VDD mp15  l=0.13u w=0.24u m=2
*M33 N_12 N_10 N_11 VDD mp15  l=0.13u w=0.3u m=1
*M34 N_11 N_10 N_12 VDD mp15  l=0.13u w=0.17u m=1
M35 N_14 N_3 N_30 VDD mp15  l=0.13u w=0.17u m=1
M36 N_30 N_26 N_11 VDD mp15  l=0.13u w=0.17u m=1
M37 N_12 N_7 N_14 VDD mp15  l=0.13u w=0.46u m=1
M38 N_11 N_21 VDD VDD mp15  l=0.13u w=0.315u m=2
*M39 VDD N_21 N_11 VDD mp15  l=0.13u w=0.315u m=1
M40 N_21 RN VDD VDD mp15  l=0.13u w=0.26u m=1
M41 N_14 SN VDD VDD mp15  l=0.13u w=0.28u m=1
M42 Q N_26 VDD VDD mp15  l=0.13u w=0.4u m=1
M43 QN N_14 VDD VDD mp15  l=0.13u w=0.4u m=1
M44 N_26 N_14 VDD VDD mp15  l=0.13u w=0.26u m=1
.ends sdbfb0
* SPICE INPUT		Tue Jul 31 20:21:38 2018	sdbfb1
* EV_NETLIST Version AMD.64 Release B-2008.09.SP5.HF4.26013 2015/05/03
*
*The following line needed for Star-CR:
*CRU_OPT (KEEP_ELEMENTS "^[CR]D")
*
*The following line needed for CDL:
*.BIPOLAR

* Hierarchy Level 0

* Top of hierarchy  cell=sdbfb1
.subckt sdbfb1 VDD QN Q GND CKN RN SI SN D SE
M1 N_110 D GND GND mn15  l=0.13u w=0.28u m=1
M2 N_110 N_5 N_6 GND mn15  l=0.13u w=0.28u m=1
M3 N_111 SE N_6 GND mn15  l=0.13u w=0.18u m=1
M4 GND SE N_5 GND mn15  l=0.13u w=0.18u m=1
M5 N_111 SI GND GND mn15  l=0.13u w=0.18u m=1
M6 GND CKN N_2 GND mn15  l=0.13u w=0.2u m=1
M7 N_112 N_12 GND GND mn15  l=0.13u w=0.17u m=1
M8 GND N_2 N_7 GND mn15  l=0.13u w=0.2u m=1
M9 N_112 N_2 N_10 GND mn15  l=0.13u w=0.17u m=1
M10 N_10 N_7 N_6 GND mn15  l=0.13u w=0.3u m=1
M11 N_113 N_18 N_39 GND mn15  l=0.13u w=0.17u m=1
M12 N_12 N_10 N_39 GND mn15  l=0.13u w=0.165u m=2
*M13 N_39 N_10 N_12 GND mn15  l=0.13u w=0.165u m=1
M14 N_14 N_2 N_12 GND mn15  l=0.13u w=0.4u m=1
M15 N_113 N_7 N_14 GND mn15  l=0.13u w=0.17u m=1
M16 N_14 N_24 N_39 GND mn15  l=0.13u w=0.27u m=1
M17 QN N_14 GND GND mn15  l=0.13u w=0.46u m=1
M18 N_18 N_14 GND GND mn15  l=0.13u w=0.27u m=1
M19 GND RN N_24 GND mn15  l=0.13u w=0.17u m=1
M20 N_39 SN GND GND mn15  l=0.13u w=0.23u m=2
*M20 N_39 SN GND GND mn15  l=0.13u w=0.27u m=1
*M21 N_39 SN GND GND mn15  l=0.13u w=0.19u m=1
M22 Q N_18 GND GND mn15  l=0.13u w=0.46u m=1
M23 N_27 D VDD VDD mp15  l=0.13u w=0.42u m=1
M24 N_27 SE N_6 VDD mp15  l=0.13u w=0.42u m=1
M25 N_5 SE VDD VDD mp15  l=0.13u w=0.28u m=1
M26 N_28 N_5 N_6 VDD mp15  l=0.13u w=0.28u m=1
M27 N_28 SI VDD VDD mp15  l=0.13u w=0.28u m=1
M28 VDD CKN N_2 VDD mp15  l=0.13u w=0.51u m=1
M29 N_29 N_12 VDD VDD mp15  l=0.13u w=0.17u m=1
M30 VDD N_2 N_7 VDD mp15  l=0.13u w=0.51u m=1
M31 N_10 N_2 N_6 VDD mp15  l=0.13u w=0.48u m=1
M32 N_29 N_7 N_10 VDD mp15  l=0.13u w=0.17u m=1
M33 N_12 N_10 N_11 VDD mp15  l=0.13u w=0.315u m=2
*M34 N_11 N_10 N_12 VDD mp15  l=0.13u w=0.315u m=1
M35 N_14 N_2 N_30 VDD mp15  l=0.13u w=0.17u m=1
M36 N_30 N_18 N_11 VDD mp15  l=0.13u w=0.17u m=1
M37 N_12 N_7 N_14 VDD mp15  l=0.13u w=0.565u m=1
M38 QN N_14 VDD VDD mp15  l=0.13u w=0.69u m=1
M39 N_18 N_14 VDD VDD mp15  l=0.13u w=0.39u m=1
M40 N_11 N_24 VDD VDD mp15  l=0.13u w=0.35u m=2
*M41 VDD N_24 N_11 VDD mp15  l=0.13u w=0.35u m=1
M42 N_24 RN VDD VDD mp15  l=0.13u w=0.26u m=1
M43 N_14 SN VDD VDD mp15  l=0.13u w=0.35u m=1
M44 Q N_18 VDD VDD mp15  l=0.13u w=0.69u m=1
.ends sdbfb1
* SPICE INPUT		Tue Jul 31 20:21:51 2018	sdbfb2
* EV_NETLIST Version AMD.64 Release B-2008.09.SP5.HF4.26013 2015/05/03
*
*The following line needed for Star-CR:
*CRU_OPT (KEEP_ELEMENTS "^[CR]D")
*
*The following line needed for CDL:
*.BIPOLAR

* Hierarchy Level 0

* Top of hierarchy  cell=sdbfb2
.subckt sdbfb2 Q VDD QN SE SI SN RN CKN GND D
M1 GND N_9 QN GND mn15  l=0.13u w=0.46u m=1
M2 QN N_9 GND GND mn15  l=0.13u w=0.46u m=1
M3 GND N_9 N_5 GND mn15  l=0.13u w=0.36u m=1
M4 GND N_5 Q GND mn15  l=0.13u w=0.46u m=1
M5 GND N_5 Q GND mn15  l=0.13u w=0.43u m=1
M6 GND SN N_46 GND mn15  l=0.13u w=0.28u m=1
M7 N_46 SN GND GND mn15  l=0.13u w=0.32u m=1
M8 N_46 SN GND GND mn15  l=0.13u w=0.32u m=1
M9 N_10 RN GND GND mn15  l=0.13u w=0.27u m=1
M10 N_27 CKN GND GND mn15  l=0.13u w=0.27u m=1
M11 N_128 SE N_24 GND mn15  l=0.13u w=0.27u m=1
M12 GND SE N_29 GND mn15  l=0.13u w=0.24u m=1
M13 N_127 N_29 N_24 GND mn15  l=0.13u w=0.36u m=1
M14 N_128 SI GND GND mn15  l=0.13u w=0.27u m=1
M15 N_127 D GND GND mn15  l=0.13u w=0.36u m=1
M16 N_129 N_5 N_46 GND mn15  l=0.13u w=0.17u m=1
M17 N_9 N_10 N_46 GND mn15  l=0.13u w=0.36u m=1
M18 N_129 N_22 N_9 GND mn15  l=0.13u w=0.17u m=1
M19 N_9 N_27 N_13 GND mn15  l=0.13u w=0.46u m=1
M20 N_13 N_25 N_46 GND mn15  l=0.13u w=0.22u m=1
M21 N_46 N_25 N_13 GND mn15  l=0.13u w=0.22u m=1
M22 N_13 N_25 N_46 GND mn15  l=0.13u w=0.22u m=1
M23 N_25 N_22 N_24 GND mn15  l=0.13u w=0.35u m=1
M24 GND N_27 N_22 GND mn15  l=0.13u w=0.22u m=1
M25 N_130 N_27 N_25 GND mn15  l=0.13u w=0.17u m=1
M26 N_130 N_13 GND GND mn15  l=0.13u w=0.17u m=1
M27 QN N_9 VDD VDD mp15  l=0.13u w=0.69u m=1
M28 QN N_9 VDD VDD mp15  l=0.13u w=0.69u m=1
M29 N_5 N_9 VDD VDD mp15  l=0.13u w=0.52u m=1
M30 VDD N_5 Q VDD mp15  l=0.13u w=0.69u m=1
M31 VDD N_5 Q VDD mp15  l=0.13u w=0.69u m=1
M32 N_9 SN VDD VDD mp15  l=0.13u w=0.55u m=1
M33 N_10 RN VDD VDD mp15  l=0.13u w=0.4u m=1
M34 N_14 N_5 N_31 VDD mp15  l=0.13u w=0.17u m=1
M35 N_14 N_10 VDD VDD mp15  l=0.13u w=0.45u m=1
M36 N_14 N_10 VDD VDD mp15  l=0.13u w=0.45u m=1
M37 VDD N_10 N_14 VDD mp15  l=0.13u w=0.44u m=1
M38 N_31 N_27 N_9 VDD mp15  l=0.13u w=0.17u m=1
M39 N_13 N_22 N_9 VDD mp15  l=0.13u w=0.7u m=1
M40 N_13 N_25 N_14 VDD mp15  l=0.13u w=0.315u m=1
M41 N_14 N_25 N_13 VDD mp15  l=0.13u w=0.315u m=1
M42 N_13 N_25 N_14 VDD mp15  l=0.13u w=0.315u m=1
M43 N_13 N_25 N_14 VDD mp15  l=0.13u w=0.315u m=1
M44 N_32 N_22 N_25 VDD mp15  l=0.13u w=0.17u m=1
M45 VDD N_27 N_22 VDD mp15  l=0.13u w=0.55u m=1
M46 N_25 N_27 N_24 VDD mp15  l=0.13u w=0.52u m=1
M47 N_32 N_13 VDD VDD mp15  l=0.13u w=0.17u m=1
M48 N_27 CKN VDD VDD mp15  l=0.13u w=0.69u m=1
M49 N_24 SE N_33 VDD mp15  l=0.13u w=0.51u m=1
M50 N_29 SE VDD VDD mp15  l=0.13u w=0.37u m=1
M51 N_34 N_29 N_24 VDD mp15  l=0.13u w=0.4u m=1
M52 N_34 SI VDD VDD mp15  l=0.13u w=0.4u m=1
M53 N_33 D VDD VDD mp15  l=0.13u w=0.51u m=1
.ends sdbfb2
* SPICE INPUT		Tue Jul 31 20:22:05 2018	sdbrb0
* EV_NETLIST Version AMD.64 Release B-2008.09.SP5.HF4.26013 2015/05/03
*
*The following line needed for Star-CR:
*CRU_OPT (KEEP_ELEMENTS "^[CR]D")
*
*The following line needed for CDL:
*.BIPOLAR

* Hierarchy Level 0

* Top of hierarchy  cell=sdbrb0
.subckt sdbrb0 VDD Q QN SN RN GND CK SI D SE
M1 N_106 D GND GND mn15  l=0.13u w=0.18u m=1
M2 N_106 N_5 N_6 GND mn15  l=0.13u w=0.18u m=1
M3 N_107 SE N_6 GND mn15  l=0.13u w=0.18u m=1
M4 GND SE N_5 GND mn15  l=0.13u w=0.18u m=1
M5 N_107 SI GND GND mn15  l=0.13u w=0.18u m=1
M6 GND CK N_3 GND mn15  l=0.13u w=0.18u m=1
M7 N_10 N_3 N_6 GND mn15  l=0.13u w=0.18u m=1
M8 N_108 N_12 GND GND mn15  l=0.13u w=0.17u m=1
M9 N_108 N_7 N_10 GND mn15  l=0.13u w=0.17u m=1
M10 GND N_3 N_7 GND mn15  l=0.13u w=0.17u m=1
M11 QN N_14 GND GND mn15  l=0.13u w=0.26u m=1
M12 N_24 N_14 GND GND mn15  l=0.13u w=0.18u m=1
M13 N_34 N_10 N_12 GND mn15  l=0.13u w=0.14u m=2
*M14 N_12 N_10 N_34 GND mn15  l=0.13u w=0.14u m=1
M15 N_14 N_7 N_12 GND mn15  l=0.13u w=0.28u m=1
M16 N_109 N_3 N_14 GND mn15  l=0.13u w=0.17u m=1
M17 N_34 N_19 N_14 GND mn15  l=0.13u w=0.2u m=1
M18 N_109 N_24 N_34 GND mn15  l=0.13u w=0.17u m=1
M19 N_19 RN GND GND mn15  l=0.13u w=0.18u m=1
M20 GND SN N_34 GND mn15  l=0.13u w=0.28u m=1
M21 Q N_24 GND GND mn15  l=0.13u w=0.26u m=1
M22 N_25 D VDD VDD mp15  l=0.13u w=0.28u m=1
M23 N_26 N_5 N_6 VDD mp15  l=0.13u w=0.28u m=1
M24 N_25 SE N_6 VDD mp15  l=0.13u w=0.28u m=1
M25 N_5 SE VDD VDD mp15  l=0.13u w=0.26u m=1
M26 N_26 SI VDD VDD mp15  l=0.13u w=0.28u m=1
M27 N_3 CK VDD VDD mp15  l=0.13u w=0.46u m=1
M28 N_27 N_12 VDD VDD mp15  l=0.13u w=0.17u m=1
M29 N_10 N_7 N_6 VDD mp15  l=0.13u w=0.28u m=1
M30 VDD N_3 N_7 VDD mp15  l=0.13u w=0.42u m=1
M31 N_27 N_3 N_10 VDD mp15  l=0.13u w=0.17u m=1
M32 N_11 N_10 N_12 VDD mp15  l=0.13u w=0.47u m=1
M33 N_14 N_7 N_28 VDD mp15  l=0.13u w=0.17u m=1
M34 N_28 N_24 N_11 VDD mp15  l=0.13u w=0.17u m=1
M35 N_14 N_3 N_12 VDD mp15  l=0.13u w=0.46u m=1
M36 VDD N_19 N_11 VDD mp15  l=0.13u w=0.47u m=1
M37 N_19 RN VDD VDD mp15  l=0.13u w=0.26u m=1
M38 N_14 SN VDD VDD mp15  l=0.13u w=0.28u m=1
M39 Q N_24 VDD VDD mp15  l=0.13u w=0.4u m=1
M40 QN N_14 VDD VDD mp15  l=0.13u w=0.4u m=1
M41 N_24 N_14 VDD VDD mp15  l=0.13u w=0.26u m=1
.ends sdbrb0
* SPICE INPUT		Tue Jul 31 20:22:18 2018	sdbrb1
* EV_NETLIST Version AMD.64 Release B-2008.09.SP5.HF4.26013 2015/05/03
*
*The following line needed for Star-CR:
*CRU_OPT (KEEP_ELEMENTS "^[CR]D")
*
*The following line needed for CDL:
*.BIPOLAR

* Hierarchy Level 0

* Top of hierarchy  cell=sdbrb1
.subckt sdbrb1 GND Q QN VDD SN RN CK SI D SE
M1 N_25 D GND GND mn15  l=0.13u w=0.28u m=1
M2 N_25 N_4 N_6 GND mn15  l=0.13u w=0.28u m=1
M3 GND SE N_4 GND mn15  l=0.13u w=0.18u m=1
M4 N_26 SE N_6 GND mn15  l=0.13u w=0.18u m=1
M5 N_26 SI GND GND mn15  l=0.13u w=0.18u m=1
M6 GND CK N_2 GND mn15  l=0.13u w=0.2u m=1
M7 N_6 N_2 N_9 GND mn15  l=0.13u w=0.31u m=1
M8 N_27 N_13 GND GND mn15  l=0.13u w=0.17u m=1
M9 N_27 N_7 N_9 GND mn15  l=0.13u w=0.17u m=1
M10 GND N_2 N_7 GND mn15  l=0.13u w=0.17u m=1
M11 N_13 N_9 N_11 GND mn15  l=0.13u w=0.18u m=2
*M12 N_11 N_9 N_13 GND mn15  l=0.13u w=0.18u m=1
M13 N_12 N_7 N_13 GND mn15  l=0.13u w=0.4u m=1
M14 N_28 N_2 N_12 GND mn15  l=0.13u w=0.17u m=1
M15 N_12 N_19 N_11 GND mn15  l=0.13u w=0.28u m=1
M16 N_28 N_24 N_11 GND mn15  l=0.13u w=0.17u m=1
M17 GND RN N_19 GND mn15  l=0.13u w=0.18u m=1
M18 N_11 SN GND GND mn15  l=0.13u w=0.23u m=2
*M18 N_11 SN GND GND mn15  l=0.13u w=0.27u m=1
*M19 N_11 SN GND GND mn15  l=0.13u w=0.19u m=1
M20 Q N_24 GND GND mn15  l=0.13u w=0.46u m=1
M21 QN N_12 GND GND mn15  l=0.13u w=0.46u m=1
M22 N_24 N_12 GND GND mn15  l=0.13u w=0.28u m=1
M23 N_115 D VDD VDD mp15  l=0.13u w=0.42u m=1
M24 N_115 SE N_6 VDD mp15  l=0.13u w=0.42u m=1
M25 N_4 SE VDD VDD mp15  l=0.13u w=0.28u m=1
M26 N_116 N_4 N_6 VDD mp15  l=0.13u w=0.28u m=1
M27 N_116 SI VDD VDD mp15  l=0.13u w=0.28u m=1
M28 VDD CK N_2 VDD mp15  l=0.13u w=0.51u m=1
M29 N_117 N_13 VDD VDD mp15  l=0.13u w=0.17u m=1
M30 N_6 N_7 N_9 VDD mp15  l=0.13u w=0.48u m=1
M31 VDD N_2 N_7 VDD mp15  l=0.13u w=0.42u m=1
M32 N_117 N_2 N_9 VDD mp15  l=0.13u w=0.17u m=1
M33 N_13 N_9 N_37 VDD mp15  l=0.13u w=0.32u m=2
*M34 N_13 N_9 N_37 VDD mp15  l=0.13u w=0.31u m=1
M35 N_12 N_7 N_118 VDD mp15  l=0.13u w=0.17u m=1
M36 N_118 N_24 N_37 VDD mp15  l=0.13u w=0.17u m=1
M37 N_13 N_2 N_12 VDD mp15  l=0.13u w=0.55u m=1
M38 N_37 N_19 VDD VDD mp15  l=0.13u w=0.35u m=2
*M39 VDD N_19 N_37 VDD mp15  l=0.13u w=0.35u m=1
M40 N_19 RN VDD VDD mp15  l=0.13u w=0.28u m=1
M41 N_12 SN VDD VDD mp15  l=0.13u w=0.37u m=1
M42 Q N_24 VDD VDD mp15  l=0.13u w=0.69u m=1
M43 QN N_12 VDD VDD mp15  l=0.13u w=0.69u m=1
M44 N_24 N_12 VDD VDD mp15  l=0.13u w=0.41u m=1
.ends sdbrb1
* SPICE INPUT		Tue Jul 31 20:22:32 2018	sdbrb2
* EV_NETLIST Version AMD.64 Release B-2008.09.SP5.HF4.26013 2015/05/03
*
*The following line needed for Star-CR:
*CRU_OPT (KEEP_ELEMENTS "^[CR]D")
*
*The following line needed for CDL:
*.BIPOLAR

* Hierarchy Level 0

* Top of hierarchy  cell=sdbrb2
.subckt sdbrb2 VDD QN Q SE SN RN CK SI D GND
M1 GND SE N_3 GND mn15  l=0.13u w=0.24u m=1
M2 N_56 SE N_6 GND mn15  l=0.13u w=0.28u m=1
M3 N_5 CK GND GND mn15  l=0.13u w=0.28u m=1
M4 N_55 D GND GND mn15  l=0.13u w=0.21u m=1
M5 N_54 D GND GND mn15  l=0.13u w=0.21u m=1
M6 N_54 N_3 N_6 GND mn15  l=0.13u w=0.21u m=1
M7 N_6 N_3 N_55 GND mn15  l=0.13u w=0.21u m=1
M8 N_56 SI GND GND mn15  l=0.13u w=0.28u m=1
M9 N_6 N_5 N_11 GND mn15  l=0.13u w=0.37u m=1
M10 N_57 N_26 GND GND mn15  l=0.13u w=0.17u m=1
M11 N_57 N_9 N_11 GND mn15  l=0.13u w=0.17u m=1
M12 GND N_5 N_9 GND mn15  l=0.13u w=0.17u m=1
M13 N_26 N_11 N_53 GND mn15  l=0.13u w=0.32u m=1
M14 N_26 N_11 N_53 GND mn15  l=0.13u w=0.32u m=1
M15 N_15 N_9 N_26 GND mn15  l=0.13u w=0.54u m=1
M16 N_58 N_5 N_15 GND mn15  l=0.13u w=0.17u m=1
M17 N_53 N_19 N_15 GND mn15  l=0.13u w=0.18u m=1
M18 N_15 N_19 N_53 GND mn15  l=0.13u w=0.19u m=1
M19 N_53 N_23 N_58 GND mn15  l=0.13u w=0.17u m=1
M20 N_19 RN GND GND mn15  l=0.13u w=0.28u m=1
M21 GND SN N_53 GND mn15  l=0.13u w=0.205u m=1
M22 N_53 SN GND GND mn15  l=0.13u w=0.33u m=1
M23 N_53 SN GND GND mn15  l=0.13u w=0.33u m=1
M24 GND N_15 N_23 GND mn15  l=0.13u w=0.37u m=1
M25 GND N_23 Q GND mn15  l=0.13u w=0.455u m=1
M26 Q N_23 GND GND mn15  l=0.13u w=0.455u m=1
M27 GND N_15 QN GND mn15  l=0.13u w=0.46u m=1
M28 GND N_15 QN GND mn15  l=0.13u w=0.46u m=1
M29 N_3 SE VDD VDD mp15  l=0.13u w=0.37u m=1
M30 N_35 N_3 N_6 VDD mp15  l=0.13u w=0.42u m=1
M31 N_34 SE N_6 VDD mp15  l=0.13u w=0.31u m=1
M32 N_33 SE N_6 VDD mp15  l=0.13u w=0.31u m=1
M33 N_5 CK VDD VDD mp15  l=0.13u w=0.69u m=1
M34 N_34 D VDD VDD mp15  l=0.13u w=0.31u m=1
M35 N_33 D VDD VDD mp15  l=0.13u w=0.31u m=1
M36 N_35 SI VDD VDD mp15  l=0.13u w=0.42u m=1
M37 N_36 N_26 VDD VDD mp15  l=0.13u w=0.17u m=1
M38 N_6 N_9 N_11 VDD mp15  l=0.13u w=0.55u m=1
M39 VDD N_5 N_9 VDD mp15  l=0.13u w=0.42u m=1
M40 N_36 N_5 N_11 VDD mp15  l=0.13u w=0.17u m=1
M41 N_37 N_9 N_15 VDD mp15  l=0.13u w=0.17u m=1
M42 N_14 N_19 VDD VDD mp15  l=0.13u w=0.59u m=1
M43 N_14 N_19 VDD VDD mp15  l=0.13u w=0.59u m=1
M44 N_14 N_23 N_37 VDD mp15  l=0.13u w=0.17u m=1
M45 N_19 RN VDD VDD mp15  l=0.13u w=0.42u m=1
M46 N_15 SN VDD VDD mp15  l=0.13u w=0.55u m=1
M47 N_23 N_15 VDD VDD mp15  l=0.13u w=0.55u m=1
M48 Q N_23 VDD VDD mp15  l=0.13u w=0.69u m=1
M49 Q N_23 VDD VDD mp15  l=0.13u w=0.69u m=1
M50 VDD N_15 QN VDD mp15  l=0.13u w=0.69u m=1
M51 VDD N_15 QN VDD mp15  l=0.13u w=0.69u m=1
M52 N_26 N_11 N_14 VDD mp15  l=0.13u w=0.28u m=1
M53 N_14 N_11 N_26 VDD mp15  l=0.13u w=0.28u m=1
M54 N_26 N_11 N_14 VDD mp15  l=0.13u w=0.28u m=1
M55 N_14 N_11 N_26 VDD mp15  l=0.13u w=0.28u m=1
M56 N_15 N_5 N_26 VDD mp15  l=0.13u w=0.5u m=1
M57 N_26 N_5 N_15 VDD mp15  l=0.13u w=0.5u m=1
.ends sdbrb2
* SPICE INPUT		Tue Jul 31 20:22:46 2018	sdbrbm
* EV_NETLIST Version AMD.64 Release B-2008.09.SP5.HF4.26013 2015/05/03
*
*The following line needed for Star-CR:
*CRU_OPT (KEEP_ELEMENTS "^[CR]D")
*
*The following line needed for CDL:
*.BIPOLAR

* Hierarchy Level 0

* Top of hierarchy  cell=sdbrbm
.subckt sdbrbm VDD Q QN GND SN RN CK SI D SE
M1 N_111 D GND GND mn15  l=0.13u w=0.24u m=1
M2 N_111 N_5 N_6 GND mn15  l=0.13u w=0.24u m=1
M3 N_112 SE N_6 GND mn15  l=0.13u w=0.24u m=1
M4 GND SE N_5 GND mn15  l=0.13u w=0.18u m=1
M5 N_112 SI GND GND mn15  l=0.13u w=0.24u m=1
M6 GND CK N_3 GND mn15  l=0.13u w=0.2u m=1
M7 N_6 N_3 N_9 GND mn15  l=0.13u w=0.28u m=1
M8 N_113 N_12 GND GND mn15  l=0.13u w=0.17u m=1
M9 N_113 N_7 N_9 GND mn15  l=0.13u w=0.17u m=1
M10 GND N_3 N_7 GND mn15  l=0.13u w=0.17u m=1
M11 N_37 N_9 N_12 GND mn15  l=0.13u w=0.18u m=1
M12 N_12 N_9 N_37 GND mn15  l=0.13u w=0.18u m=1
M13 N_14 N_7 N_12 GND mn15  l=0.13u w=0.37u m=1
M14 N_114 N_3 N_14 GND mn15  l=0.13u w=0.17u m=1
M15 N_37 N_21 N_14 GND mn15  l=0.13u w=0.22u m=1
M16 N_114 N_26 N_37 GND mn15  l=0.13u w=0.17u m=1
M17 GND RN N_21 GND mn15  l=0.13u w=0.17u m=1
M18 N_37 SN GND GND mn15  l=0.13u w=0.21u m=1
M19 N_37 SN GND GND mn15  l=0.13u w=0.21u m=1
M20 Q N_26 GND GND mn15  l=0.13u w=0.36u m=1
M21 QN N_14 GND GND mn15  l=0.13u w=0.36u m=1
M22 N_26 N_14 GND GND mn15  l=0.13u w=0.22u m=1
M23 N_27 D VDD VDD mp15  l=0.13u w=0.37u m=1
M24 N_28 N_5 N_6 VDD mp15  l=0.13u w=0.37u m=1
M25 N_5 SE VDD VDD mp15  l=0.13u w=0.28u m=1
M26 N_27 SE N_6 VDD mp15  l=0.13u w=0.37u m=1
M27 N_28 SI VDD VDD mp15  l=0.13u w=0.37u m=1
M28 N_3 CK VDD VDD mp15  l=0.13u w=0.51u m=1
M29 N_29 N_12 VDD VDD mp15  l=0.13u w=0.17u m=1
M30 N_6 N_7 N_9 VDD mp15  l=0.13u w=0.42u m=1
M31 VDD N_3 N_7 VDD mp15  l=0.13u w=0.42u m=1
M32 N_29 N_3 N_9 VDD mp15  l=0.13u w=0.17u m=1
M33 N_12 N_9 N_11 VDD mp15  l=0.13u w=0.28u m=1
M34 N_11 N_9 N_12 VDD mp15  l=0.13u w=0.28u m=1
M35 N_14 N_7 N_30 VDD mp15  l=0.13u w=0.17u m=1
M36 N_30 N_26 N_11 VDD mp15  l=0.13u w=0.17u m=1
M37 N_12 N_3 N_14 VDD mp15  l=0.13u w=0.55u m=1
M38 VDD N_21 N_11 VDD mp15  l=0.13u w=0.28u m=1
M39 VDD N_21 N_11 VDD mp15  l=0.13u w=0.28u m=1
M40 N_21 RN VDD VDD mp15  l=0.13u w=0.24u m=1
M41 N_14 SN VDD VDD mp15  l=0.13u w=0.31u m=1
M42 Q N_26 VDD VDD mp15  l=0.13u w=0.55u m=1
M43 QN N_14 VDD VDD mp15  l=0.13u w=0.55u m=1
M44 N_26 N_14 VDD VDD mp15  l=0.13u w=0.31u m=1
.ends sdbrbm
* SPICE INPUT		Tue Jul 31 20:22:59 2018	sdbrq0
* EV_NETLIST Version AMD.64 Release B-2008.09.SP5.HF4.26013 2015/05/03
*
*The following line needed for Star-CR:
*CRU_OPT (KEEP_ELEMENTS "^[CR]D")
*
*The following line needed for CDL:
*.BIPOLAR

* Hierarchy Level 0

* Top of hierarchy  cell=sdbrq0
.subckt sdbrq0 GND Q SE D SI CK SN RN VDD
M1 N_23 SI GND GND mn15  l=0.13u w=0.18u m=1
M2 N_22 N_4 N_6 GND mn15  l=0.13u w=0.18u m=1
M3 N_22 D GND GND mn15  l=0.13u w=0.18u m=1
M4 N_23 SE N_6 GND mn15  l=0.13u w=0.18u m=1
M5 GND SE N_4 GND mn15  l=0.13u w=0.18u m=1
M6 GND CK N_2 GND mn15  l=0.13u w=0.18u m=1
M7 N_24 N_7 N_10 GND mn15  l=0.13u w=0.17u m=1
M8 N_10 N_2 N_6 GND mn15  l=0.13u w=0.18u m=1
M9 N_24 N_14 GND GND mn15  l=0.13u w=0.17u m=1
M10 GND N_2 N_7 GND mn15  l=0.13u w=0.17u m=1
M11 N_25 N_21 N_11 GND mn15  l=0.13u w=0.17u m=1
M12 N_14 N_7 N_13 GND mn15  l=0.13u w=0.28u m=1
M13 N_13 N_2 N_25 GND mn15  l=0.13u w=0.17u m=1
M14 N_14 N_10 N_11 GND mn15  l=0.13u w=0.28u m=1
M15 GND RN N_15 GND mn15  l=0.13u w=0.18u m=1
M16 N_11 SN GND GND mn15  l=0.13u w=0.28u m=1
M17 N_11 N_15 N_13 GND mn15  l=0.13u w=0.2u m=1
M18 Q N_21 GND GND mn15  l=0.13u w=0.26u m=1
M19 N_21 N_13 GND GND mn15  l=0.13u w=0.18u m=1
M20 Q N_21 VDD VDD mp15  l=0.13u w=0.4u m=1
M21 N_21 N_13 VDD VDD mp15  l=0.13u w=0.26u m=1
M22 N_44 SI VDD VDD mp15  l=0.13u w=0.28u m=1
M23 N_44 N_4 N_6 VDD mp15  l=0.13u w=0.28u m=1
M24 N_43 D VDD VDD mp15  l=0.13u w=0.28u m=1
M25 N_6 SE N_43 VDD mp15  l=0.13u w=0.28u m=1
M26 N_4 SE VDD VDD mp15  l=0.13u w=0.26u m=1
M27 N_2 CK VDD VDD mp15  l=0.13u w=0.46u m=1
M28 VDD RN N_15 VDD mp15  l=0.13u w=0.26u m=1
M29 N_13 SN VDD VDD mp15  l=0.13u w=0.28u m=1
M30 N_10 N_7 N_6 VDD mp15  l=0.13u w=0.28u m=1
M31 N_45 N_14 VDD VDD mp15  l=0.13u w=0.17u m=1
M32 N_7 N_2 VDD VDD mp15  l=0.13u w=0.42u m=1
M33 N_45 N_2 N_10 VDD mp15  l=0.13u w=0.17u m=1
M34 N_46 N_21 N_37 VDD mp15  l=0.13u w=0.17u m=1
M35 N_46 N_7 N_13 VDD mp15  l=0.13u w=0.17u m=1
M36 N_13 N_2 N_14 VDD mp15  l=0.13u w=0.44u m=1
M37 N_37 N_15 VDD VDD mp15  l=0.13u w=0.47u m=1
M38 N_14 N_10 N_37 VDD mp15  l=0.13u w=0.23u m=2
*M38 N_14 N_10 N_37 VDD mp15  l=0.13u w=0.26u m=1
*M39 N_14 N_10 N_37 VDD mp15  l=0.13u w=0.19u m=1
.ends sdbrq0
* SPICE INPUT		Tue Jul 31 20:23:12 2018	sdbrq1
* EV_NETLIST Version AMD.64 Release B-2008.09.SP5.HF4.26013 2015/05/03
*
*The following line needed for Star-CR:
*CRU_OPT (KEEP_ELEMENTS "^[CR]D")
*
*The following line needed for CDL:
*.BIPOLAR

* Hierarchy Level 0

* Top of hierarchy  cell=sdbrq1
.subckt sdbrq1 GND Q SI SE SN RN VDD D CK
M1 GND N_18 N_2 GND mn15  l=0.13u w=0.17u m=1
M2 N_23 N_14 GND GND mn15  l=0.13u w=0.17u m=1
M3 N_23 N_2 N_5 GND mn15  l=0.13u w=0.17u m=1
M4 N_5 N_18 N_4 GND mn15  l=0.13u w=0.31u m=1
M5 GND RN N_6 GND mn15  l=0.13u w=0.18u m=1
M6 N_8 SN GND GND mn15  l=0.13u w=0.46u m=1
M7 Q N_11 GND GND mn15  l=0.13u w=0.46u m=1
M8 N_11 N_12 GND GND mn15  l=0.13u w=0.28u m=1
M9 N_24 N_11 N_8 GND mn15  l=0.13u w=0.17u m=1
M10 N_24 N_18 N_12 GND mn15  l=0.13u w=0.17u m=1
M11 N_12 N_2 N_14 GND mn15  l=0.13u w=0.4u m=1
M12 N_8 N_5 N_14 GND mn15  l=0.13u w=0.185u m=2
*M13 N_14 N_5 N_8 GND mn15  l=0.13u w=0.185u m=1
M14 N_8 N_6 N_12 GND mn15  l=0.13u w=0.28u m=1
M15 GND CK N_18 GND mn15  l=0.13u w=0.2u m=1
M16 N_26 SE N_4 GND mn15  l=0.13u w=0.18u m=1
M17 GND SE N_20 GND mn15  l=0.13u w=0.18u m=1
M18 N_25 N_20 N_4 GND mn15  l=0.13u w=0.28u m=1
M19 N_25 D GND GND mn15  l=0.13u w=0.28u m=1
M20 N_26 SI GND GND mn15  l=0.13u w=0.18u m=1
M21 N_18 CK VDD VDD mp15  l=0.13u w=0.51u m=1
M22 N_103 SE N_4 VDD mp15  l=0.13u w=0.42u m=1
M23 N_20 SE VDD VDD mp15  l=0.13u w=0.28u m=1
M24 N_103 D VDD VDD mp15  l=0.13u w=0.42u m=1
M25 N_104 N_20 N_4 VDD mp15  l=0.13u w=0.28u m=1
M26 N_104 SI VDD VDD mp15  l=0.13u w=0.28u m=1
M27 N_2 N_18 VDD VDD mp15  l=0.13u w=0.42u m=1
M28 N_105 N_18 N_5 VDD mp15  l=0.13u w=0.17u m=1
M29 N_105 N_14 VDD VDD mp15  l=0.13u w=0.17u m=1
M30 N_4 N_2 N_5 VDD mp15  l=0.13u w=0.48u m=1
M31 N_14 N_18 N_12 VDD mp15  l=0.13u w=0.55u m=1
M32 N_12 N_2 N_106 VDD mp15  l=0.13u w=0.17u m=1
M33 N_14 N_5 N_36 VDD mp15  l=0.13u w=0.315u m=2
*M34 N_36 N_5 N_14 VDD mp15  l=0.13u w=0.315u m=1
M35 N_106 N_11 N_36 VDD mp15  l=0.13u w=0.17u m=1
M36 N_36 N_6 VDD VDD mp15  l=0.13u w=0.35u m=2
*M37 VDD N_6 N_36 VDD mp15  l=0.13u w=0.35u m=1
M38 VDD RN N_6 VDD mp15  l=0.13u w=0.28u m=1
M39 N_12 SN VDD VDD mp15  l=0.13u w=0.37u m=1
M40 Q N_11 VDD VDD mp15  l=0.13u w=0.69u m=1
M41 N_11 N_12 VDD VDD mp15  l=0.13u w=0.41u m=1
.ends sdbrq1
* SPICE INPUT		Tue Jul 31 20:23:25 2018	sdbrq2
* EV_NETLIST Version AMD.64 Release B-2008.09.SP5.HF4.26013 2015/05/03
*
*The following line needed for Star-CR:
*CRU_OPT (KEEP_ELEMENTS "^[CR]D")
*
*The following line needed for CDL:
*.BIPOLAR

* Hierarchy Level 0

* Top of hierarchy  cell=sdbrq2
.subckt sdbrq2 GND Q SE D SI CK SN RN VDD
M1 GND SE N_2 GND mn15  l=0.13u w=0.24u m=1
M2 N_29 SI GND GND mn15  l=0.13u w=0.28u m=1
M3 N_29 SE N_6 GND mn15  l=0.13u w=0.28u m=1
M4 N_27 N_2 N_6 GND mn15  l=0.13u w=0.21u m=1
M5 N_5 CK GND GND mn15  l=0.13u w=0.28u m=1
M6 N_28 D GND GND mn15  l=0.13u w=0.21u m=1
M7 N_27 D GND GND mn15  l=0.13u w=0.21u m=1
M8 N_6 N_2 N_28 GND mn15  l=0.13u w=0.21u m=1
M9 GND N_5 N_9 GND mn15  l=0.13u w=0.17u m=1
M10 N_30 N_9 N_11 GND mn15  l=0.13u w=0.17u m=1
M11 N_30 N_24 GND GND mn15  l=0.13u w=0.17u m=1
M12 N_6 N_5 N_11 GND mn15  l=0.13u w=0.37u m=1
M13 GND RN N_13 GND mn15  l=0.13u w=0.28u m=1
M14 N_16 SN GND GND mn15  l=0.13u w=0.435u m=1
M15 N_16 SN GND GND mn15  l=0.13u w=0.435u m=1
M16 GND N_21 N_19 GND mn15  l=0.13u w=0.37u m=1
M17 GND N_19 Q GND mn15  l=0.13u w=0.46u m=1
M18 GND N_19 Q GND mn15  l=0.13u w=0.46u m=1
M19 N_16 N_13 N_21 GND mn15  l=0.13u w=0.37u m=1
M20 N_31 N_5 N_21 GND mn15  l=0.13u w=0.17u m=1