* SPICE INPUT		Tue Jan 14 09:25:35 2020	buftld4
* EV_NETLIST Version AMD.64 Release B-2008.09.SP5.HF4.26013 2015/05/03
*
*The following line needed for Star-CR:
*CRU_OPT (KEEP_ELEMENTS "^[CR]D")
*
*The following line needed for CDL:
*.BIPOLAR

* Hierarchy Level 0

* Top of hierarchy  cell=buftld4
.subckt buftld4 OE A GND Y VDD
M1 GND N_5 Y GND mn5  l=0.5u w=0.72u m=1
M2 Y N_5 GND GND mn5  l=0.5u w=0.72u m=1
M3 N_5 A GND GND mn5  l=0.5u w=0.5u m=1
M4 N_2 OE GND GND mn5  l=0.5u w=0.5u m=1
M5 N_5 OE N_6 GND mn5  l=0.5u w=0.5u m=1
M6 N_5 N_2 GND GND mn5  l=0.5u w=0.5u m=1
M7 VDD N_6 Y VDD mp5  l=0.42u w=0.96u m=1
M8 Y N_6 VDD VDD mp5  l=0.42u w=0.96u m=1
M9 N_6 A VDD VDD mp5  l=0.42u w=0.52u m=1
M10 N_6 OE VDD VDD mp5  l=0.42u w=0.52u m=1
M11 N_2 OE VDD VDD mp5  l=0.42u w=0.52u m=1
M12 N_6 N_2 N_5 VDD mp5  l=0.42u w=0.52u m=1
.ends buftld4
* SPICE INPUT		Tue Jan 14 09:25:40 2020	buftld6
* EV_NETLIST Version AMD.64 Release B-2008.09.SP5.HF4.26013 2015/05/03
*
*The following line needed for Star-CR:
*CRU_OPT (KEEP_ELEMENTS "^[CR]D")
*
*The following line needed for CDL:
*.BIPOLAR

* Hierarchy Level 0

* Top of hierarchy  cell=buftld6
.subckt buftld6 A OE VDD GND Y
M1 N_4 OE GND GND mn5  l=0.5u w=0.5u m=1
M2 N_3 OE N_6 GND mn5  l=0.5u w=0.5u m=1
M3 N_3 N_4 GND GND mn5  l=0.5u w=0.5u m=1
M4 Y N_3 GND GND mn5  l=0.5u w=0.72u m=1
M5 Y N_3 GND GND mn5  l=0.5u w=0.72u m=1
M6 Y N_3 GND GND mn5  l=0.5u w=0.72u m=1
M7 N_3 A GND GND mn5  l=0.5u w=0.5u m=1
M8 N_6 OE VDD VDD mp5  l=0.42u w=0.52u m=1
M9 N_4 OE VDD VDD mp5  l=0.42u w=0.52u m=1
M10 N_6 A VDD VDD mp5  l=0.42u w=0.52u m=1
M11 Y N_6 VDD VDD mp5  l=0.42u w=0.96u m=1
M12 Y N_6 VDD VDD mp5  l=0.42u w=0.96u m=1
M13 Y N_6 VDD VDD mp5  l=0.42u w=0.96u m=1
M14 N_6 N_4 N_3 VDD mp5  l=0.42u w=0.52u m=1
.ends buftld6
* SPICE INPUT		Tue Jan 14 09:25:45 2020	buftld8
* EV_NETLIST Version AMD.64 Release B-2008.09.SP5.HF4.26013 2015/05/03
*
*The following line needed for Star-CR:
*CRU_OPT (KEEP_ELEMENTS "^[CR]D")
*
*The following line needed for CDL:
*.BIPOLAR

* Hierarchy Level 0

* Top of hierarchy  cell=buftld8
.subckt buftld8 OE A Y VDD GND
M1 GND N_5 Y GND mn5  l=0.5u w=0.72u m=1
M2 GND N_5 Y GND mn5  l=0.5u w=0.72u m=1
M3 GND N_5 Y GND mn5  l=0.5u w=0.72u m=1
M4 Y N_5 GND GND mn5  l=0.5u w=0.72u m=1
M5 N_5 A GND GND mn5  l=0.5u w=0.5u m=1
M6 N_2 OE GND GND mn5  l=0.5u w=0.5u m=1
M7 N_5 OE N_6 GND mn5  l=0.5u w=0.5u m=1
M8 N_5 N_2 GND GND mn5  l=0.5u w=0.5u m=1
M9 VDD N_6 Y VDD mp5  l=0.42u w=0.96u m=1
M10 VDD N_6 Y VDD mp5  l=0.42u w=0.96u m=1
M11 VDD N_6 Y VDD mp5  l=0.42u w=0.96u m=1
M12 Y N_6 VDD VDD mp5  l=0.42u w=0.96u m=1
M13 N_6 A VDD VDD mp5  l=0.42u w=0.52u m=1
M14 N_6 OE VDD VDD mp5  l=0.42u w=0.52u m=1
M15 N_2 OE VDD VDD mp5  l=0.42u w=0.52u m=1
M16 N_6 N_2 N_5 VDD mp5  l=0.42u w=0.52u m=1
.ends buftld8
* SPICE INPUT		Wed Jul 10 13:23:44 2019	ad01d0
* EV_NETLIST Version AMD.64 Release B-2008.09.SP5.HF4.26013 2015/05/03
*
*The following line needed for Star-CR:
*CRU_OPT (KEEP_ELEMENTS "^[CR]D")
*
*The following line needed for CDL:
*.BIPOLAR

* Hierarchy Level 0

* Top of hierarchy  cell=ad01d0
.subckt ad01d0 GND S CO VDD B CI A
M1 N_4 N_15 N_2 GND mn5  l=0.5u w=0.5u m=1
M2 N_3 CI N_2 GND mn5  l=0.5u w=0.5u m=1
M3 N_10 A GND GND mn5  l=0.5u w=0.5u m=1
M4 N_10 N_7 N_4 GND mn5  l=0.5u w=0.5u m=1
M5 N_7 B GND GND mn5  l=0.5u w=0.5u m=1
M6 N_7 N_10 N_4 GND mn5  l=0.5u w=0.5u m=1
M7 N_14 N_4 N_7 GND mn5  l=0.5u w=0.5u m=1
M8 N_15 N_3 N_14 GND mn5  l=0.5u w=0.5u m=1
M9 N_9 N_7 GND GND mn5  l=0.5u w=0.5u m=1
M10 N_15 CI GND GND mn5  l=0.5u w=0.5u m=1
M11 CO N_14 GND GND mn5  l=0.5u w=0.5u m=1
M12 N_10 N_9 N_3 GND mn5  l=0.5u w=0.5u m=1
M13 S N_2 GND GND mn5  l=0.5u w=0.5u m=1
M14 N_9 N_10 N_3 GND mn5  l=0.5u w=0.5u m=1
M15 N_3 N_15 N_2 VDD mp5  l=0.42u w=0.52u m=1
M16 N_4 CI N_2 VDD mp5  l=0.42u w=0.52u m=1
M17 N_10 A VDD VDD mp5  l=0.42u w=0.52u m=1
M18 N_3 N_7 N_10 VDD mp5  l=0.42u w=0.52u m=1
M19 N_7 B VDD VDD mp5  l=0.42u w=0.52u m=1
M20 N_7 N_10 N_3 VDD mp5  l=0.42u w=0.52u m=1
M21 N_14 N_3 N_7 VDD mp5  l=0.42u w=0.52u m=1
M22 N_15 N_4 N_14 VDD mp5  l=0.42u w=0.52u m=1
M23 N_9 N_7 VDD VDD mp5  l=0.42u w=0.52u m=1
M24 N_15 CI VDD VDD mp5  l=0.42u w=0.52u m=1
M25 CO N_14 VDD VDD mp5  l=0.42u w=0.52u m=1
M26 N_4 N_9 N_10 VDD mp5  l=0.42u w=0.52u m=1
M27 S N_2 VDD VDD mp5  l=0.42u w=0.52u m=1
M28 N_4 N_10 N_9 VDD mp5  l=0.42u w=0.52u m=1
.ends ad01d0
* SPICE INPUT		Wed Jul 10 13:23:52 2019	ad01d1
* EV_NETLIST Version AMD.64 Release B-2008.09.SP5.HF4.26013 2015/05/03
*
*The following line needed for Star-CR:
*CRU_OPT (KEEP_ELEMENTS "^[CR]D")
*
*The following line needed for CDL:
*.BIPOLAR

* Hierarchy Level 0

* Top of hierarchy  cell=ad01d1
.subckt ad01d1 VDD S CO GND A B CI
M1 N_4 N_15 N_2 GND mn5  l=0.5u w=0.5u m=1
M2 N_3 CI N_2 GND mn5  l=0.5u w=0.5u m=1
M3 N_9 A GND GND mn5  l=0.5u w=0.5u m=1
M4 N_9 N_7 N_4 GND mn5  l=0.5u w=0.5u m=1
M5 N_7 B GND GND mn5  l=0.5u w=0.5u m=1
M6 N_7 N_9 N_4 GND mn5  l=0.5u w=0.5u m=1
M7 N_14 N_4 N_7 GND mn5  l=0.5u w=0.5u m=1
M8 N_15 N_3 N_14 GND mn5  l=0.5u w=0.5u m=1
M9 N_8 N_7 GND GND mn5  l=0.5u w=0.5u m=1
M10 N_15 CI GND GND mn5  l=0.5u w=0.5u m=1
M11 CO N_14 GND GND mn5  l=0.5u w=0.58u m=1
M12 N_9 N_8 N_3 GND mn5  l=0.5u w=0.5u m=1
M13 S N_2 GND GND mn5  l=0.5u w=0.58u m=1
M14 N_8 N_9 N_3 GND mn5  l=0.5u w=0.5u m=1
M15 N_3 N_15 N_2 VDD mp5  l=0.42u w=0.52u m=1
M16 N_4 CI N_2 VDD mp5  l=0.42u w=0.52u m=1
M17 N_9 A VDD VDD mp5  l=0.42u w=0.52u m=1
M18 N_3 N_7 N_9 VDD mp5  l=0.42u w=0.52u m=1
M19 N_7 B VDD VDD mp5  l=0.42u w=0.52u m=1
M20 N_7 N_9 N_3 VDD mp5  l=0.42u w=0.52u m=1
M21 N_14 N_3 N_7 VDD mp5  l=0.42u w=0.52u m=1
M22 N_15 N_4 N_14 VDD mp5  l=0.42u w=0.52u m=1
M23 N_8 N_7 VDD VDD mp5  l=0.42u w=0.52u m=1
M24 N_15 CI VDD VDD mp5  l=0.42u w=0.52u m=1
M25 CO N_14 VDD VDD mp5  l=0.42u w=0.76u m=1
M26 N_4 N_8 N_9 VDD mp5  l=0.42u w=0.52u m=1
M27 S N_2 VDD VDD mp5  l=0.42u w=0.76u m=1
M28 N_4 N_9 N_8 VDD mp5  l=0.42u w=0.52u m=1
.ends ad01d1
* SPICE INPUT		Wed Jul 10 13:23:59 2019	ad01d2
* EV_NETLIST Version AMD.64 Release B-2008.09.SP5.HF4.26013 2015/05/03
*
*The following line needed for Star-CR:
*CRU_OPT (KEEP_ELEMENTS "^[CR]D")
*
*The following line needed for CDL:
*.BIPOLAR

* Hierarchy Level 0

* Top of hierarchy  cell=ad01d2
.subckt ad01d2 VDD S CO GND A B CI
M1 N_4 N_15 N_2 GND mn5  l=0.5u w=0.5u m=1
M2 N_3 CI N_2 GND mn5  l=0.5u w=0.5u m=1
M3 N_9 A GND GND mn5  l=0.5u w=0.5u m=1
M4 N_9 N_7 N_4 GND mn5  l=0.5u w=0.5u m=1
M5 N_7 B GND GND mn5  l=0.5u w=0.5u m=1
M6 N_7 N_9 N_4 GND mn5  l=0.5u w=0.5u m=1
M7 N_14 N_4 N_7 GND mn5  l=0.5u w=0.5u m=1
M8 N_15 N_3 N_14 GND mn5  l=0.5u w=0.5u m=1
M9 N_8 N_7 GND GND mn5  l=0.5u w=0.5u m=1
M10 N_15 CI GND GND mn5  l=0.5u w=0.5u m=1
M11 CO N_14 GND GND mn5  l=0.5u w=0.72u m=1
M12 N_9 N_8 N_3 GND mn5  l=0.5u w=0.5u m=1
M13 S N_2 GND GND mn5  l=0.5u w=0.72u m=1
M14 N_8 N_9 N_3 GND mn5  l=0.5u w=0.5u m=1
M15 N_3 N_15 N_2 VDD mp5  l=0.42u w=0.52u m=1
M16 N_4 CI N_2 VDD mp5  l=0.42u w=0.52u m=1
M17 N_9 A VDD VDD mp5  l=0.42u w=0.52u m=1
M18 N_3 N_7 N_9 VDD mp5  l=0.42u w=0.52u m=1
M19 N_7 B VDD VDD mp5  l=0.42u w=0.52u m=1
M20 N_7 N_9 N_3 VDD mp5  l=0.42u w=0.52u m=1
M21 N_14 N_3 N_7 VDD mp5  l=0.42u w=0.52u m=1
M22 N_15 N_4 N_14 VDD mp5  l=0.42u w=0.52u m=1
M23 N_8 N_7 VDD VDD mp5  l=0.42u w=0.52u m=1
M24 N_15 CI VDD VDD mp5  l=0.42u w=0.52u m=1
M25 CO N_14 VDD VDD mp5  l=0.42u w=0.96u m=1
M26 N_4 N_8 N_9 VDD mp5  l=0.42u w=0.52u m=1
M27 S N_2 VDD VDD mp5  l=0.42u w=0.96u m=1
M28 N_4 N_9 N_8 VDD mp5  l=0.42u w=0.52u m=1
.ends ad01d2
* SPICE INPUT		Wed Jul 10 13:24:06 2019	ah01d0
* EV_NETLIST Version AMD.64 Release B-2008.09.SP5.HF4.26013 2015/05/03
*
*The following line needed for Star-CR:
*CRU_OPT (KEEP_ELEMENTS "^[CR]D")
*
*The following line needed for CDL:
*.BIPOLAR

* Hierarchy Level 0

* Top of hierarchy  cell=ah01d0
.subckt ah01d0 VDD CO S GND B A
M1 N_4 N_6 GND GND mn5  l=0.5u w=0.5u m=1
M2 S N_7 N_4 GND mn5  l=0.5u w=0.5u m=1
M3 GND A N_6 GND mn5  l=0.5u w=0.5u m=1
M4 CO N_8 GND GND mn5  l=0.5u w=0.5u m=1
M5 N_21 B GND GND mn5  l=0.5u w=0.5u m=1
M6 N_7 B GND GND mn5  l=0.5u w=0.5u m=1
M7 S B N_6 GND mn5  l=0.5u w=0.5u m=1
M8 N_21 A N_8 GND mn5  l=0.5u w=0.5u m=1
M9 N_4 N_6 VDD VDD mp5  l=0.42u w=0.52u m=1
M10 N_6 N_7 S VDD mp5  l=0.42u w=0.52u m=1
M11 N_6 A VDD VDD mp5  l=0.42u w=0.52u m=1
M12 CO N_8 VDD VDD mp5  l=0.42u w=0.52u m=1
M13 N_8 B VDD VDD mp5  l=0.42u w=0.52u m=1
M14 S B N_4 VDD mp5  l=0.42u w=0.52u m=1
M15 N_7 B VDD VDD mp5  l=0.42u w=0.52u m=1
M16 N_8 A VDD VDD mp5  l=0.42u w=0.52u m=1
.ends ah01d0
* SPICE INPUT		Wed Jul 10 13:24:13 2019	ah01d1
* EV_NETLIST Version AMD.64 Release B-2008.09.SP5.HF4.26013 2015/05/03
*
*The following line needed for Star-CR:
*CRU_OPT (KEEP_ELEMENTS "^[CR]D")
*
*The following line needed for CDL:
*.BIPOLAR

* Hierarchy Level 0

* Top of hierarchy  cell=ah01d1
.subckt ah01d1 VDD CO S GND A B
M1 N_4 N_5 GND GND mn5  l=0.5u w=0.5u m=1
M2 S N_7 N_4 GND mn5  l=0.5u w=0.58u m=1
M3 GND A N_5 GND mn5  l=0.5u w=0.5u m=1
M4 S B N_5 GND mn5  l=0.5u w=0.58u m=1
M5 N_7 B GND GND mn5  l=0.5u w=0.5u m=1
M6 N_21 A N_8 GND mn5  l=0.5u w=0.5u m=1
M7 N_21 B GND GND mn5  l=0.5u w=0.5u m=1
M8 CO N_8 GND GND mn5  l=0.5u w=0.58u m=1
M9 N_4 N_5 VDD VDD mp5  l=0.42u w=0.52u m=1
M10 S N_7 N_5 VDD mp5  l=0.42u w=0.76u m=1
M11 N_5 A VDD VDD mp5  l=0.42u w=0.52u m=1
M12 S B N_4 VDD mp5  l=0.42u w=0.76u m=1
M13 N_7 B VDD VDD mp5  l=0.42u w=0.52u m=1
M14 N_8 A VDD VDD mp5  l=0.42u w=0.52u m=1
M15 N_8 B VDD VDD mp5  l=0.42u w=0.52u m=1
M16 CO N_8 VDD VDD mp5  l=0.42u w=0.76u m=1
.ends ah01d1
* SPICE INPUT		Wed Jul 10 13:24:20 2019	ah01d2
* EV_NETLIST Version AMD.64 Release B-2008.09.SP5.HF4.26013 2015/05/03
*
*The following line needed for Star-CR:
*CRU_OPT (KEEP_ELEMENTS "^[CR]D")
*
*The following line needed for CDL:
*.BIPOLAR

* Hierarchy Level 0

* Top of hierarchy  cell=ah01d2
.subckt ah01d2 VDD CO S GND B A
M1 N_4 B GND GND mn5  l=0.5u w=0.5u m=1
M2 S N_4 N_5 GND mn5  l=0.5u w=0.72u m=1
M3 N_6 B S GND mn5  l=0.5u w=0.72u m=1
M4 N_6 A GND GND mn5  l=0.5u w=0.5u m=1
M5 N_12 A N_8 GND mn5  l=0.5u w=0.5u m=1
M6 N_12 B GND GND mn5  l=0.5u w=0.5u m=1
M7 CO N_8 GND GND mn5  l=0.5u w=0.72u m=1
M8 N_5 N_6 GND GND mn5  l=0.5u w=0.5u m=1
M9 N_4 B VDD VDD mp5  l=0.42u w=0.52u m=1
M10 S N_4 N_6 VDD mp5  l=0.42u w=0.96u m=1
M11 N_8 A VDD VDD mp5  l=0.42u w=0.52u m=1
M12 N_6 A VDD VDD mp5  l=0.42u w=0.52u m=1
M13 N_8 B VDD VDD mp5  l=0.42u w=0.52u m=1
M14 CO N_8 VDD VDD mp5  l=0.42u w=0.96u m=1
M15 N_5 N_6 VDD VDD mp5  l=0.42u w=0.52u m=1
M16 S B N_5 VDD mp5  l=0.42u w=0.96u m=1
.ends ah01d2
* SPICE INPUT		Wed Jul 10 13:24:28 2019	an02d0
* EV_NETLIST Version AMD.64 Release B-2008.09.SP5.HF4.26013 2015/05/03
*
*The following line needed for Star-CR:
*CRU_OPT (KEEP_ELEMENTS "^[CR]D")
*
*The following line needed for CDL:
*.BIPOLAR

* Hierarchy Level 0

* Top of hierarchy  cell=an02d0
.subckt an02d0 B A VDD Y GND
M1 N_8 A N_2 GND mn5  l=0.5u w=0.5u m=1
M2 N_8 B GND GND mn5  l=0.5u w=0.5u m=1
M3 Y N_2 GND GND mn5  l=0.5u w=0.5u m=1
M4 N_2 A VDD VDD mp5  l=0.42u w=0.52u m=1
M5 N_2 B VDD VDD mp5  l=0.42u w=0.52u m=1
M6 Y N_2 VDD VDD mp5  l=0.42u w=0.52u m=1
.ends an02d0
* SPICE INPUT		Wed Jul 10 13:24:35 2019	an02d1
* EV_NETLIST Version AMD.64 Release B-2008.09.SP5.HF4.26013 2015/05/03
*
*The following line needed for Star-CR:
*CRU_OPT (KEEP_ELEMENTS "^[CR]D")
*
*The following line needed for CDL:
*.BIPOLAR

* Hierarchy Level 0

* Top of hierarchy  cell=an02d1
.subckt an02d1 B A VDD Y GND
M1 N_8 A N_2 GND mn5  l=0.5u w=0.58u m=1
M2 N_8 B GND GND mn5  l=0.5u w=0.58u m=1
M3 Y N_2 GND GND mn5  l=0.5u w=0.58u m=1
M4 N_2 A VDD VDD mp5  l=0.42u w=0.52u m=1
M5 N_2 B VDD VDD mp5  l=0.42u w=0.52u m=1
M6 Y N_2 VDD VDD mp5  l=0.42u w=0.76u m=1
.ends an02d1
* SPICE INPUT		Wed Jul 10 13:24:42 2019	an02d2
* EV_NETLIST Version AMD.64 Release B-2008.09.SP5.HF4.26013 2015/05/03
*
*The following line needed for Star-CR:
*CRU_OPT (KEEP_ELEMENTS "^[CR]D")
*
*The following line needed for CDL:
*.BIPOLAR

* Hierarchy Level 0

* Top of hierarchy  cell=an02d2
.subckt an02d2 B A VDD Y GND
M1 N_8 A N_2 GND mn5  l=0.5u w=0.5u m=1
M2 N_8 B GND GND mn5  l=0.5u w=0.5u m=1
M3 Y N_2 GND GND mn5  l=0.5u w=0.72u m=1
M4 N_2 A VDD VDD mp5  l=0.42u w=0.52u m=1
M5 N_2 B VDD VDD mp5  l=0.42u w=0.52u m=1
M6 Y N_2 VDD VDD mp5  l=0.42u w=0.96u m=1
.ends an02d2
* SPICE INPUT		Wed Jul 10 13:24:49 2019	an03d0
* EV_NETLIST Version AMD.64 Release B-2008.09.SP5.HF4.26013 2015/05/03
*
*The following line needed for Star-CR:
*CRU_OPT (KEEP_ELEMENTS "^[CR]D")
*
*The following line needed for CDL:
*.BIPOLAR

* Hierarchy Level 0

* Top of hierarchy  cell=an03d0
.subckt an03d0 C B A GND Y VDD
M1 N_9 A N_2 GND mn5  l=0.5u w=0.5u m=1
M2 N_10 B N_9 GND mn5  l=0.5u w=0.5u m=1
M3 N_10 C GND GND mn5  l=0.5u w=0.5u m=1
M4 Y N_2 GND GND mn5  l=0.5u w=0.5u m=1
M5 N_2 A VDD VDD mp5  l=0.42u w=0.52u m=1
M6 N_2 B VDD VDD mp5  l=0.42u w=0.52u m=1
M7 N_2 C VDD VDD mp5  l=0.42u w=0.52u m=1
M8 Y N_2 VDD VDD mp5  l=0.42u w=0.52u m=1
.ends an03d0
* SPICE INPUT		Wed Jul 10 13:24:56 2019	an03d1
* EV_NETLIST Version AMD.64 Release B-2008.09.SP5.HF4.26013 2015/05/03
*
*The following line needed for Star-CR:
*CRU_OPT (KEEP_ELEMENTS "^[CR]D")
*
*The following line needed for CDL:
*.BIPOLAR

* Hierarchy Level 0

* Top of hierarchy  cell=an03d1
.subckt an03d1 C B A Y GND VDD
M1 N_9 A N_2 GND mn5  l=0.5u w=0.58u m=1
M2 N_10 B N_9 GND mn5  l=0.5u w=0.58u m=1
M3 N_10 C GND GND mn5  l=0.5u w=0.58u m=1
M4 Y N_2 GND GND mn5  l=0.5u w=0.58u m=1
M5 N_2 A VDD VDD mp5  l=0.42u w=0.52u m=1
M6 N_2 B VDD VDD mp5  l=0.42u w=0.52u m=1
M7 N_2 C VDD VDD mp5  l=0.42u w=0.52u m=1
M8 Y N_2 VDD VDD mp5  l=0.42u w=0.76u m=1
.ends an03d1
* SPICE INPUT		Wed Jul 10 13:25:04 2019	an03d2
* EV_NETLIST Version AMD.64 Release B-2008.09.SP5.HF4.26013 2015/05/03
*
*The following line needed for Star-CR:
*CRU_OPT (KEEP_ELEMENTS "^[CR]D")
*
*The following line needed for CDL:
*.BIPOLAR

* Hierarchy Level 0

* Top of hierarchy  cell=an03d2
.subckt an03d2 C B A Y GND VDD
M1 N_9 A N_2 GND mn5  l=0.5u w=0.5u m=1
M2 N_10 B N_9 GND mn5  l=0.5u w=0.5u m=1
M3 N_10 C GND GND mn5  l=0.5u w=0.5u m=1
M4 Y N_2 GND GND mn5  l=0.5u w=0.72u m=1
M5 N_2 A VDD VDD mp5  l=0.42u w=0.52u m=1
M6 N_2 B VDD VDD mp5  l=0.42u w=0.52u m=1
M7 N_2 C VDD VDD mp5  l=0.42u w=0.52u m=1
M8 Y N_2 VDD VDD mp5  l=0.42u w=0.96u m=1
.ends an03d2
* SPICE INPUT		Wed Jul 10 13:25:11 2019	an04d0
* EV_NETLIST Version AMD.64 Release B-2008.09.SP5.HF4.26013 2015/05/03
*
*The following line needed for Star-CR:
*CRU_OPT (KEEP_ELEMENTS "^[CR]D")
*
*The following line needed for CDL:
*.BIPOLAR

* Hierarchy Level 0

* Top of hierarchy  cell=an04d0
.subckt an04d0 GND Y VDD D C B A
M1 N_6 A N_4 GND mn5  l=0.5u w=0.58u m=1
M2 N_7 B N_6 GND mn5  l=0.5u w=0.58u m=1
M3 N_8 C N_7 GND mn5  l=0.5u w=0.58u m=1
M4 N_8 D GND GND mn5  l=0.5u w=0.58u m=1
M5 Y N_4 GND GND mn5  l=0.5u w=0.5u m=1
M6 N_4 A VDD VDD mp5  l=0.42u w=0.52u m=1
M7 N_4 B VDD VDD mp5  l=0.42u w=0.52u m=1
M8 N_4 C VDD VDD mp5  l=0.42u w=0.52u m=1
M9 N_4 D VDD VDD mp5  l=0.42u w=0.52u m=1
M10 Y N_4 VDD VDD mp5  l=0.42u w=0.52u m=1
.ends an04d0
* SPICE INPUT		Wed Jul 10 13:25:18 2019	an04d1
* EV_NETLIST Version AMD.64 Release B-2008.09.SP5.HF4.26013 2015/05/03
*
*The following line needed for Star-CR:
*CRU_OPT (KEEP_ELEMENTS "^[CR]D")
*
*The following line needed for CDL:
*.BIPOLAR

* Hierarchy Level 0

* Top of hierarchy  cell=an04d1
.subckt an04d1 GND Y VDD D C B A
M1 N_6 A N_4 GND mn5  l=0.5u w=0.58u m=1
M2 N_7 B N_6 GND mn5  l=0.5u w=0.58u m=1
M3 N_8 C N_7 GND mn5  l=0.5u w=0.58u m=1
M4 N_8 D GND GND mn5  l=0.5u w=0.58u m=1
M5 Y N_4 GND GND mn5  l=0.5u w=0.58u m=1
M6 N_4 A VDD VDD mp5  l=0.42u w=0.52u m=1
M7 N_4 B VDD VDD mp5  l=0.42u w=0.52u m=1
M8 N_4 C VDD VDD mp5  l=0.42u w=0.52u m=1
M9 N_4 D VDD VDD mp5  l=0.42u w=0.52u m=1
M10 Y N_4 VDD VDD mp5  l=0.42u w=0.76u m=1
.ends an04d1
* SPICE INPUT		Wed Jul 10 13:25:25 2019	an04d2
* EV_NETLIST Version AMD.64 Release B-2008.09.SP5.HF4.26013 2015/05/03
*
*The following line needed for Star-CR:
*CRU_OPT (KEEP_ELEMENTS "^[CR]D")
*
*The following line needed for CDL:
*.BIPOLAR

* Hierarchy Level 0

* Top of hierarchy  cell=an04d2
.subckt an04d2 GND Y VDD A B C D
M1 N_8 C N_7 GND mn5  l=0.5u w=0.58u m=1
M2 N_7 B N_6 GND mn5  l=0.5u w=0.58u m=1
M3 N_6 A N_4 GND mn5  l=0.5u w=0.58u m=1
M4 N_8 D GND GND mn5  l=0.5u w=0.58u m=1
M5 Y N_4 GND GND mn5  l=0.5u w=0.72u m=1
M6 N_4 C VDD VDD mp5  l=0.42u w=0.52u m=1
M7 N_4 B VDD VDD mp5  l=0.42u w=0.52u m=1
M8 N_4 A VDD VDD mp5  l=0.42u w=0.52u m=1
M9 N_4 D VDD VDD mp5  l=0.42u w=0.52u m=1
M10 Y N_4 VDD VDD mp5  l=0.42u w=0.96u m=1
.ends an04d2
* SPICE INPUT		Wed Jul 10 13:25:33 2019	an12d0
* EV_NETLIST Version AMD.64 Release B-2008.09.SP5.HF4.26013 2015/05/03
*
*The following line needed for Star-CR:
*CRU_OPT (KEEP_ELEMENTS "^[CR]D")
*
*The following line needed for CDL:
*.BIPOLAR

* Hierarchy Level 0

* Top of hierarchy  cell=an12d0
.subckt an12d0 B AN GND VDD Y
M1 N_4 AN GND GND mn5  l=0.5u w=0.5u m=1
M2 N_14 N_4 N_2 GND mn5  l=0.5u w=0.5u m=1
M3 N_14 B GND GND mn5  l=0.5u w=0.5u m=1
M4 Y N_2 GND GND mn5  l=0.5u w=0.5u m=1
M5 N_4 AN VDD VDD mp5  l=0.42u w=0.52u m=1
M6 N_2 N_4 VDD VDD mp5  l=0.42u w=0.52u m=1
M7 N_2 B VDD VDD mp5  l=0.42u w=0.52u m=1
M8 Y N_2 VDD VDD mp5  l=0.42u w=0.52u m=1
.ends an12d0
* SPICE INPUT		Wed Jul 10 13:25:40 2019	an12d1
* EV_NETLIST Version AMD.64 Release B-2008.09.SP5.HF4.26013 2015/05/03
*
*The following line needed for Star-CR:
*CRU_OPT (KEEP_ELEMENTS "^[CR]D")
*
*The following line needed for CDL:
*.BIPOLAR

* Hierarchy Level 0

* Top of hierarchy  cell=an12d1
.subckt an12d1 B AN GND VDD Y
M1 N_4 AN GND GND mn5  l=0.5u w=0.5u m=1
M2 N_14 N_4 N_2 GND mn5  l=0.5u w=0.5u m=1
M3 N_14 B GND GND mn5  l=0.5u w=0.5u m=1
M4 Y N_2 GND GND mn5  l=0.5u w=0.58u m=1
M5 N_4 AN VDD VDD mp5  l=0.42u w=0.52u m=1
M6 N_2 N_4 VDD VDD mp5  l=0.42u w=0.52u m=1
M7 N_2 B VDD VDD mp5  l=0.42u w=0.52u m=1
M8 Y N_2 VDD VDD mp5  l=0.42u w=0.76u m=1
.ends an12d1
* SPICE INPUT		Wed Jul 10 13:25:47 2019	an12d2
* EV_NETLIST Version AMD.64 Release B-2008.09.SP5.HF4.26013 2015/05/03
*
*The following line needed for Star-CR:
*CRU_OPT (KEEP_ELEMENTS "^[CR]D")
*
*The following line needed for CDL:
*.BIPOLAR

* Hierarchy Level 0

* Top of hierarchy  cell=an12d2
.subckt an12d2 B AN GND VDD Y
M1 N_4 AN GND GND mn5  l=0.5u w=0.5u m=1
M2 N_9 N_4 N_2 GND mn5  l=0.5u w=0.5u m=1
M3 N_9 B GND GND mn5  l=0.5u w=0.5u m=1
M4 Y N_2 GND GND mn5  l=0.5u w=0.72u m=1
M5 N_4 AN VDD VDD mp5  l=0.42u w=0.52u m=1
M6 N_2 N_4 VDD VDD mp5  l=0.42u w=0.52u m=1
M7 N_2 B VDD VDD mp5  l=0.42u w=0.52u m=1
M8 Y N_2 VDD VDD mp5  l=0.42u w=0.96u m=1
.ends an12d2
* SPICE INPUT		Wed Jul 10 13:25:54 2019	an13d0
* EV_NETLIST Version AMD.64 Release B-2008.09.SP5.HF4.26013 2015/05/03
*
*The following line needed for Star-CR:
*CRU_OPT (KEEP_ELEMENTS "^[CR]D")
*
*The following line needed for CDL:
*.BIPOLAR

* Hierarchy Level 0

* Top of hierarchy  cell=an13d0
.subckt an13d0 C B AN GND VDD Y
M1 Y N_6 GND GND mn5  l=0.5u w=0.5u m=1
M2 N_4 AN GND GND mn5  l=0.5u w=0.5u m=1
M3 N_11 N_4 N_6 GND mn5  l=0.5u w=0.5u m=1
M4 N_11 B N_10 GND mn5  l=0.5u w=0.5u m=1
M5 N_10 C GND GND mn5  l=0.5u w=0.5u m=1
M6 Y N_6 VDD VDD mp5  l=0.42u w=0.52u m=1
M7 N_4 AN VDD VDD mp5  l=0.42u w=0.52u m=1
M8 N_6 N_4 VDD VDD mp5  l=0.42u w=0.52u m=1
M9 N_6 B VDD VDD mp5  l=0.42u w=0.52u m=1
M10 N_6 C VDD VDD mp5  l=0.42u w=0.52u m=1
.ends an13d0
* SPICE INPUT		Wed Jul 10 13:26:01 2019	an13d1
* EV_NETLIST Version AMD.64 Release B-2008.09.SP5.HF4.26013 2015/05/03
*
*The following line needed for Star-CR:
*CRU_OPT (KEEP_ELEMENTS "^[CR]D")
*
*The following line needed for CDL:
*.BIPOLAR

* Hierarchy Level 0

* Top of hierarchy  cell=an13d1
.subckt an13d1 C B AN VDD GND Y
M1 Y N_6 GND GND mn5  l=0.5u w=0.58u m=1
M2 N_4 AN GND GND mn5  l=0.5u w=0.5u m=1
M3 N_11 N_4 N_6 GND mn5  l=0.5u w=0.5u m=1
M4 N_11 B N_10 GND mn5  l=0.5u w=0.5u m=1
M5 N_10 C GND GND mn5  l=0.5u w=0.5u m=1
M6 Y N_6 VDD VDD mp5  l=0.42u w=0.76u m=1
M7 N_4 AN VDD VDD mp5  l=0.42u w=0.52u m=1
M8 N_6 N_4 VDD VDD mp5  l=0.42u w=0.52u m=1
M9 N_6 B VDD VDD mp5  l=0.42u w=0.52u m=1
M10 N_6 C VDD VDD mp5  l=0.42u w=0.52u m=1
.ends an13d1
* SPICE INPUT		Wed Jul 10 13:26:08 2019	an13d2
* EV_NETLIST Version AMD.64 Release B-2008.09.SP5.HF4.26013 2015/05/03
*
*The following line needed for Star-CR:
*CRU_OPT (KEEP_ELEMENTS "^[CR]D")
*
*The following line needed for CDL:
*.BIPOLAR

* Hierarchy Level 0

* Top of hierarchy  cell=an13d2
.subckt an13d2 C B AN VDD GND Y
M1 Y N_6 GND GND mn5  l=0.5u w=0.72u m=1
M2 N_4 AN GND GND mn5  l=0.5u w=0.5u m=1
M3 N_11 N_4 N_6 GND mn5  l=0.5u w=0.5u m=1
M4 N_11 B N_10 GND mn5  l=0.5u w=0.5u m=1
M5 N_10 C GND GND mn5  l=0.5u w=0.5u m=1
M6 Y N_6 VDD VDD mp5  l=0.42u w=0.96u m=1
M7 N_4 AN VDD VDD mp5  l=0.42u w=0.52u m=1
M8 N_6 N_4 VDD VDD mp5  l=0.42u w=0.52u m=1
M9 N_6 B VDD VDD mp5  l=0.42u w=0.52u m=1
M10 N_6 C VDD VDD mp5  l=0.42u w=0.52u m=1
.ends an13d2
* SPICE INPUT		Wed Jul 10 13:26:15 2019	an23d0
* EV_NETLIST Version AMD.64 Release B-2008.09.SP5.HF4.26013 2015/05/03
*
*The following line needed for Star-CR:
*CRU_OPT (KEEP_ELEMENTS "^[CR]D")
*
*The following line needed for CDL:
*.BIPOLAR

* Hierarchy Level 0

* Top of hierarchy  cell=an23d0
.subckt an23d0 C BN AN VDD Y GND
M1 N_4 AN GND GND mn5  l=0.5u w=0.5u m=1
M2 N_3 BN GND GND mn5  l=0.5u w=0.5u m=1
M3 Y N_5 GND GND mn5  l=0.5u w=0.5u m=1
M4 N_11 N_4 N_5 GND mn5  l=0.5u w=0.5u m=1
M5 N_12 N_3 N_11 GND mn5  l=0.5u w=0.5u m=1
M6 N_12 C GND GND mn5  l=0.5u w=0.5u m=1
M7 N_4 AN VDD VDD mp5  l=0.42u w=0.52u m=1
M8 N_3 BN VDD VDD mp5  l=0.42u w=0.52u m=1
M9 Y N_5 VDD VDD mp5  l=0.42u w=0.52u m=1
M10 N_5 N_4 VDD VDD mp5  l=0.42u w=0.52u m=1
M11 N_5 N_3 VDD VDD mp5  l=0.42u w=0.52u m=1
M12 N_5 C VDD VDD mp5  l=0.42u w=0.52u m=1
.ends an23d0
* SPICE INPUT		Wed Jul 10 13:26:23 2019	an23d1
* EV_NETLIST Version AMD.64 Release B-2008.09.SP5.HF4.26013 2015/05/03
*
*The following line needed for Star-CR:
*CRU_OPT (KEEP_ELEMENTS "^[CR]D")
*
*The following line needed for CDL:
*.BIPOLAR

* Hierarchy Level 0

* Top of hierarchy  cell=an23d1
.subckt an23d1 C BN AN GND VDD Y
M1 N_5 AN GND GND mn5  l=0.5u w=0.5u m=1
M2 N_4 BN GND GND mn5  l=0.5u w=0.5u m=1
M3 N_11 N_5 N_2 GND mn5  l=0.5u w=0.5u m=1
M4 N_12 N_4 N_11 GND mn5  l=0.5u w=0.5u m=1
M5 N_12 C GND GND mn5  l=0.5u w=0.5u m=1
M6 Y N_2 GND GND mn5  l=0.5u w=0.58u m=1
M7 N_5 AN VDD VDD mp5  l=0.42u w=0.52u m=1
M8 N_4 BN VDD VDD mp5  l=0.42u w=0.52u m=1
M9 N_2 N_5 VDD VDD mp5  l=0.42u w=0.52u m=1
M10 N_2 N_4 VDD VDD mp5  l=0.42u w=0.52u m=1
M11 N_2 C VDD VDD mp5  l=0.42u w=0.52u m=1
M12 Y N_2 VDD VDD mp5  l=0.42u w=0.76u m=1
.ends an23d1
* SPICE INPUT		Wed Jul 10 13:26:30 2019	an23d2
* EV_NETLIST Version AMD.64 Release B-2008.09.SP5.HF4.26013 2015/05/03
*
*The following line needed for Star-CR:
*CRU_OPT (KEEP_ELEMENTS "^[CR]D")
*
*The following line needed for CDL:
*.BIPOLAR

* Hierarchy Level 0

* Top of hierarchy  cell=an23d2
.subckt an23d2 C BN AN GND VDD Y
M1 N_4 AN GND GND mn5  l=0.5u w=0.5u m=1
M2 Y N_6 GND GND mn5  l=0.5u w=0.72u m=1
M3 N_3 BN GND GND mn5  l=0.5u w=0.5u m=1
M4 N_11 N_4 N_6 GND mn5  l=0.5u w=0.5u m=1
M5 N_12 N_3 N_11 GND mn5  l=0.5u w=0.5u m=1
M6 N_12 C GND GND mn5  l=0.5u w=0.5u m=1
M7 N_4 AN VDD VDD mp5  l=0.42u w=0.52u m=1
M8 Y N_6 VDD VDD mp5  l=0.42u w=0.96u m=1
M9 N_3 BN VDD VDD mp5  l=0.42u w=0.52u m=1
M10 N_6 N_4 VDD VDD mp5  l=0.42u w=0.52u m=1
M11 N_6 N_3 VDD VDD mp5  l=0.42u w=0.52u m=1
M12 N_6 C VDD VDD mp5  l=0.42u w=0.52u m=1
.ends an23d2


* Top of hierarchy  cell=aoi211d0
.subckt aoi211d0 A0 A1 B0 C0 Y VDD GND
M1 Y C0 GND GND mn5  l=0.5u w=0.5u m=1
M2 Y B0 GND GND mn5  l=0.5u w=0.5u m=1
M3 Y A1 N_15 GND mn5  l=0.5u w=0.5u m=1
M4 N_15 A0 GND GND mn5  l=0.5u w=0.5u m=1
M5 Y C0 N_10 VDD mp5  l=0.42u w=0.52u m=1
M6 N_6 B0 N_10 VDD mp5  l=0.42u w=0.52u m=1
M7 N_6 A1 VDD VDD mp5  l=0.42u w=0.52u m=1
M8 N_6 A0 VDD VDD mp5  l=0.42u w=0.52u m=1
.ends aoi211d0
* SPICE INPUT		Wed Jul 10 13:26:51 2019	aoi211d1
* EV_NETLIST Version AMD.64 Release B-2008.09.SP5.HF4.26013 2015/05/03
*
*The following line needed for Star-CR:
*CRU_OPT (KEEP_ELEMENTS "^[CR]D")
*
*The following line needed for CDL:
*.BIPOLAR

* Hierarchy Level 0

* Top of hierarchy  cell=aoi211d1
.subckt aoi211d1 A0 A1 B0 C0 Y VDD GND
M1 Y C0 GND GND mn5  l=0.5u w=0.58u m=1
M2 Y B0 GND GND mn5  l=0.5u w=0.58u m=1
M3 Y A1 N_10 GND mn5  l=0.5u w=0.58u m=1
M4 N_10 A0 GND GND mn5  l=0.5u w=0.58u m=1
M5 Y C0 N_16 VDD mp5  l=0.42u w=0.76u m=1
M6 N_6 B0 N_16 VDD mp5  l=0.42u w=0.76u m=1
M7 N_6 A1 VDD VDD mp5  l=0.42u w=0.76u m=1
M8 N_6 A0 VDD VDD mp5  l=0.42u w=0.76u m=1
.ends aoi211d1
* SPICE INPUT		Wed Jul 10 13:26:58 2019	aoi211d2
* EV_NETLIST Version AMD.64 Release B-2008.09.SP5.HF4.26013 2015/05/03
*
*The following line needed for Star-CR:
*CRU_OPT (KEEP_ELEMENTS "^[CR]D")
*
*The following line needed for CDL:
*.BIPOLAR

* Hierarchy Level 0

* Top of hierarchy  cell=aoi211d2
.subckt aoi211d2 A0 A1 B0 C0 Y VDD GND
M1 Y C0 GND GND mn5  l=0.5u w=0.72u m=1
M2 Y B0 GND GND mn5  l=0.5u w=0.72u m=1
M3 Y A1 N_10 GND mn5  l=0.5u w=0.72u m=1
M4 N_10 A0 GND GND mn5  l=0.5u w=0.72u m=1
M5 Y C0 N_16 VDD mp5  l=0.42u w=0.96u m=1
M6 N_6 B0 N_16 VDD mp5  l=0.42u w=0.96u m=1
M7 N_6 A1 VDD VDD mp5  l=0.42u w=0.96u m=1
M8 N_6 A0 VDD VDD mp5  l=0.42u w=0.96u m=1
.ends aoi211d2
* SPICE INPUT		Wed Jul 10 13:27:05 2019	aoi21d0
* EV_NETLIST Version AMD.64 Release B-2008.09.SP5.HF4.26013 2015/05/03
*
*The following line needed for Star-CR:
*CRU_OPT (KEEP_ELEMENTS "^[CR]D")
*
*The following line needed for CDL:
*.BIPOLAR

* Hierarchy Level 0

* Top of hierarchy  cell=aoi21d0
.subckt aoi21d0 A0 A1 B0 GND Y VDD
M1 Y B0 GND GND mn5  l=0.5u w=0.5u m=1
M2 N_12 A1 Y GND mn5  l=0.5u w=0.5u m=1
M3 N_12 A0 GND GND mn5  l=0.5u w=0.5u m=1
M4 Y B0 N_7 VDD mp5  l=0.42u w=0.52u m=1
M5 N_7 A1 VDD VDD mp5  l=0.42u w=0.52u m=1
M6 N_7 A0 VDD VDD mp5  l=0.42u w=0.52u m=1
.ends aoi21d0
* SPICE INPUT		Wed Jul 10 13:27:13 2019	aoi21d1
* EV_NETLIST Version AMD.64 Release B-2008.09.SP5.HF4.26013 2015/05/03
*
*The following line needed for Star-CR:
*CRU_OPT (KEEP_ELEMENTS "^[CR]D")
*
*The following line needed for CDL:
*.BIPOLAR

* Hierarchy Level 0

* Top of hierarchy  cell=aoi21d1
.subckt aoi21d1 A0 A1 B0 GND Y VDD
M1 Y B0 GND GND mn5  l=0.5u w=0.58u m=1
M2 N_9 A1 Y GND mn5  l=0.5u w=0.58u m=1
M3 N_9 A0 GND GND mn5  l=0.5u w=0.58u m=1
M4 Y B0 N_7 VDD mp5  l=0.42u w=0.76u m=1
M5 N_7 A1 VDD VDD mp5  l=0.42u w=0.76u m=1
M6 N_7 A0 VDD VDD mp5  l=0.42u w=0.76u m=1
.ends aoi21d1
* SPICE INPUT		Wed Jul 10 13:27:20 2019	aoi21d2
* EV_NETLIST Version AMD.64 Release B-2008.09.SP5.HF4.26013 2015/05/03
*
*The following line needed for Star-CR:
*CRU_OPT (KEEP_ELEMENTS "^[CR]D")
*
*The following line needed for CDL:
*.BIPOLAR

* Hierarchy Level 0

* Top of hierarchy  cell=aoi21d2
.subckt aoi21d2 A0 A1 B0 GND Y VDD
M1 Y B0 GND GND mn5  l=0.5u w=0.72u m=1
M2 N_9 A1 Y GND mn5  l=0.5u w=0.72u m=1
M3 N_9 A0 GND GND mn5  l=0.5u w=0.72u m=1
M4 Y B0 N_7 VDD mp5  l=0.42u w=0.96u m=1
M5 N_7 A1 VDD VDD mp5  l=0.42u w=0.96u m=1
M6 N_7 A0 VDD VDD mp5  l=0.42u w=0.96u m=1
.ends aoi21d2
* SPICE INPUT		Wed Jul 10 13:27:27 2019	aoi221d0
* EV_NETLIST Version AMD.64 Release B-2008.09.SP5.HF4.26013 2015/05/03
*
*The following line needed for Star-CR:
*CRU_OPT (KEEP_ELEMENTS "^[CR]D")
*
*The following line needed for CDL:
*.BIPOLAR

* Hierarchy Level 0

* Top of hierarchy  cell=aoi221d0
.subckt aoi221d0 C0 A0 A1 B1 B0 VDD GND Y
M1 N_12 B0 GND GND mn5  l=0.5u w=0.5u m=1
M2 Y B1 N_12 GND mn5  l=0.5u w=0.5u m=1
M3 N_13 A1 Y GND mn5  l=0.5u w=0.5u m=1
M4 N_13 A0 GND GND mn5  l=0.5u w=0.5u m=1
M5 Y C0 GND GND mn5  l=0.5u w=0.5u m=1
M6 Y C0 N_7 VDD mp5  l=0.42u w=0.52u m=1
M7 N_11 B0 VDD VDD mp5  l=0.42u w=0.52u m=1
M8 N_11 B1 VDD VDD mp5  l=0.42u w=0.52u m=1
M9 N_11 A1 N_7 VDD mp5  l=0.42u w=0.52u m=1
M10 N_11 A0 N_7 VDD mp5  l=0.42u w=0.52u m=1
.ends aoi221d0
* SPICE INPUT		Wed Jul 10 13:27:34 2019	aoi221d1
* EV_NETLIST Version AMD.64 Release B-2008.09.SP5.HF4.26013 2015/05/03
*
*The following line needed for Star-CR:
*CRU_OPT (KEEP_ELEMENTS "^[CR]D")
*
*The following line needed for CDL:
*.BIPOLAR

* Hierarchy Level 0

* Top of hierarchy  cell=aoi221d1
.subckt aoi221d1 B0 A0 A1 B1 C0 Y VDD GND
M1 Y C0 GND GND mn5  l=0.5u w=0.58u m=1
M2 Y B1 N_12 GND mn5  l=0.5u w=0.58u m=1
M3 N_13 A1 Y GND mn5  l=0.5u w=0.58u m=1
M4 N_13 A0 GND GND mn5  l=0.5u w=0.58u m=1
M5 N_12 B0 GND GND mn5  l=0.5u w=0.58u m=1
M6 Y C0 N_8 VDD mp5  l=0.42u w=0.76u m=1
M7 N_7 B1 VDD VDD mp5  l=0.42u w=0.76u m=1
M8 N_7 A1 N_8 VDD mp5  l=0.42u w=0.76u m=1
M9 N_7 A0 N_8 VDD mp5  l=0.42u w=0.76u m=1
M10 N_7 B0 VDD VDD mp5  l=0.42u w=0.76u m=1
.ends aoi221d1
* SPICE INPUT		Wed Jul 10 13:27:41 2019	aoi221d2
* EV_NETLIST Version AMD.64 Release B-2008.09.SP5.HF4.26013 2015/05/03
*
*The following line needed for Star-CR:
*CRU_OPT (KEEP_ELEMENTS "^[CR]D")
*
*The following line needed for CDL:
*.BIPOLAR

* Hierarchy Level 0

* Top of hierarchy  cell=aoi221d2
.subckt aoi221d2 B0 A0 A1 B1 C0 Y VDD GND
M1 Y C0 GND GND mn5  l=0.5u w=0.72u m=1
M2 Y B1 N_12 GND mn5  l=0.5u w=0.72u m=1
M3 N_13 A1 Y GND mn5  l=0.5u w=0.72u m=1
M4 N_13 A0 GND GND mn5  l=0.5u w=0.72u m=1
M5 N_12 B0 GND GND mn5  l=0.5u w=0.72u m=1
M6 Y C0 N_8 VDD mp5  l=0.42u w=0.96u m=1
M7 N_7 B1 VDD VDD mp5  l=0.42u w=0.96u m=1
M8 N_7 A1 N_8 VDD mp5  l=0.42u w=0.96u m=1
M9 N_7 A0 N_8 VDD mp5  l=0.42u w=0.96u m=1
M10 N_7 B0 VDD VDD mp5  l=0.42u w=0.96u m=1
.ends aoi221d2
* SPICE INPUT		Wed Jul 10 13:27:49 2019	aoi22d0
* EV_NETLIST Version AMD.64 Release B-2008.09.SP5.HF4.26013 2015/05/03
*
*The following line needed for Star-CR:
*CRU_OPT (KEEP_ELEMENTS "^[CR]D")
*
*The following line needed for CDL:
*.BIPOLAR

* Hierarchy Level 0

* Top of hierarchy  cell=aoi22d0
.subckt aoi22d0 B0 B1 A1 A0 GND VDD Y
M1 N_11 A0 GND GND mn5  l=0.5u w=0.5u m=1
M2 Y A1 N_11 GND mn5  l=0.5u w=0.5u m=1
M3 Y B1 N_10 GND mn5  l=0.5u w=0.5u m=1
M4 N_10 B0 GND GND mn5  l=0.5u w=0.5u m=1
M5 N_8 A0 VDD VDD mp5  l=0.42u w=0.52u m=1
M6 N_8 A1 VDD VDD mp5  l=0.42u w=0.52u m=1
M7 N_8 B1 Y VDD mp5  l=0.42u w=0.52u m=1