* SPICE INPUT		Wed Jul 10 14:00:28 2019	sdbfb1
* EV_NETLIST Version AMD.64 Release B-2008.09.SP5.HF4.26013 2015/05/03
*
*The following line needed for Star-CR:
*CRU_OPT (KEEP_ELEMENTS "^[CR]D")
*
*The following line needed for CDL:
*.BIPOLAR

* Hierarchy Level 0

* Top of hierarchy  cell=sdbfb1
.subckt sdbfb1 VDD Q QN GND RN SN SI SE D CKN
M1 N_13 RN GND GND mn5  l=0.5u w=0.5u m=1
M2 Q N_14 GND GND mn5  l=0.5u w=0.58u m=1
M3 N_14 N_12 GND GND mn5  l=0.5u w=0.5u m=1
M4 QN N_12 GND GND mn5  l=0.5u w=0.58u m=1
M5 N_4 CKN GND GND mn5  l=0.5u w=0.5u m=1
M6 N_5 N_4 GND GND mn5  l=0.5u w=0.5u m=1
M7 N_6 SE GND GND mn5  l=0.5u w=0.5u m=1
M8 N_53 D GND GND mn5  l=0.5u w=0.5u m=1
M9 N_53 N_6 N_29 GND mn5  l=0.5u w=0.5u m=1
M10 N_54 SI N_29 GND mn5  l=0.5u w=0.5u m=1
M11 N_54 SE GND GND mn5  l=0.5u w=0.5u m=1
M12 N_9 N_5 N_29 GND mn5  l=0.5u w=0.5u m=1
M13 N_9 N_4 N_55 GND mn5  l=0.5u w=0.5u m=1
M14 N_55 N_10 GND GND mn5  l=0.5u w=0.5u m=1
M15 N_27 N_9 N_10 GND mn5  l=0.5u w=0.5u m=1
M16 N_27 N_13 N_10 GND mn5  l=0.5u w=0.5u m=1
M17 N_27 SN GND GND mn5  l=0.5u w=0.5u m=1
M18 N_56 N_10 GND GND mn5  l=0.5u w=0.5u m=1
M19 N_11 N_4 N_56 GND mn5  l=0.5u w=0.5u m=1
M20 N_57 N_5 N_11 GND mn5  l=0.5u w=0.5u m=1
M21 N_57 N_12 GND GND mn5  l=0.5u w=0.5u m=1
M22 N_25 SN GND GND mn5  l=0.5u w=0.5u m=1
M23 N_12 N_13 N_25 GND mn5  l=0.5u w=0.5u m=1
M24 N_25 N_11 N_12 GND mn5  l=0.5u w=0.5u m=1
M25 N_13 RN VDD VDD mp5  l=0.42u w=0.52u m=1
M26 Q N_14 VDD VDD mp5  l=0.42u w=0.76u m=1
M27 QN N_12 VDD VDD mp5  l=0.42u w=0.76u m=1
M28 N_14 N_12 VDD VDD mp5  l=0.42u w=0.52u m=1
M29 N_4 CKN VDD VDD mp5  l=0.42u w=0.52u m=1
M30 N_5 N_4 VDD VDD mp5  l=0.42u w=0.52u m=1
M31 N_6 SE VDD VDD mp5  l=0.42u w=0.52u m=1
M32 N_17 D VDD VDD mp5  l=0.42u w=0.52u m=1
M33 N_7 SE N_17 VDD mp5  l=0.42u w=0.52u m=1
M34 N_18 N_6 N_7 VDD mp5  l=0.42u w=0.52u m=1
M35 N_18 SI VDD VDD mp5  l=0.42u w=0.52u m=1
M36 N_9 N_4 N_7 VDD mp5  l=0.42u w=0.52u m=1
M37 N_19 N_5 N_9 VDD mp5  l=0.42u w=0.52u m=1
M38 N_19 N_10 VDD VDD mp5  l=0.42u w=0.52u m=1
M39 N_20 N_9 VDD VDD mp5  l=0.42u w=0.52u m=1
M40 N_20 N_13 N_10 VDD mp5  l=0.42u w=0.52u m=1
M41 N_10 SN VDD VDD mp5  l=0.42u w=0.52u m=1
M42 N_21 N_10 VDD VDD mp5  l=0.42u w=0.52u m=1
M43 N_21 N_5 N_11 VDD mp5  l=0.42u w=0.52u m=1
M44 N_22 N_4 N_11 VDD mp5  l=0.42u w=0.5u m=1
M45 N_22 N_12 VDD VDD mp5  l=0.42u w=0.5u m=1
M46 N_12 SN VDD VDD mp5  l=0.42u w=0.52u m=1
M47 N_23 N_13 N_12 VDD mp5  l=0.42u w=0.52u m=1
M48 N_23 N_11 VDD VDD mp5  l=0.42u w=0.52u m=1
.ends sdbfb1
* SPICE INPUT		Wed Jul 10 14:00:35 2019	sdbfb2
* EV_NETLIST Version AMD.64 Release B-2008.09.SP5.HF4.26013 2015/05/03
*
*The following line needed for Star-CR:
*CRU_OPT (KEEP_ELEMENTS "^[CR]D")
*
*The following line needed for CDL:
*.BIPOLAR

* Hierarchy Level 0

* Top of hierarchy  cell=sdbfb2
.subckt sdbfb2 VDD Q QN GND RN SN SI SE D CKN
M1 N_4 CKN GND GND mn5  l=0.5u w=0.5u m=1
M2 N_5 N_4 GND GND mn5  l=0.5u w=0.5u m=1
M3 N_6 SE GND GND mn5  l=0.5u w=0.5u m=1
M4 N_53 D GND GND mn5  l=0.5u w=0.5u m=1
M5 N_53 N_6 N_29 GND mn5  l=0.5u w=0.5u m=1
M6 N_54 SI N_29 GND mn5  l=0.5u w=0.5u m=1
M7 N_54 SE GND GND mn5  l=0.5u w=0.5u m=1
M8 N_9 N_5 N_29 GND mn5  l=0.5u w=0.5u m=1
M9 N_9 N_4 N_55 GND mn5  l=0.5u w=0.5u m=1
M10 N_55 N_10 GND GND mn5  l=0.5u w=0.5u m=1
M11 N_27 N_9 N_10 GND mn5  l=0.5u w=0.5u m=1
M12 N_27 N_13 N_10 GND mn5  l=0.5u w=0.5u m=1
M13 N_27 SN GND GND mn5  l=0.5u w=0.5u m=1
M14 N_56 N_10 GND GND mn5  l=0.5u w=0.5u m=1
M15 N_11 N_4 N_56 GND mn5  l=0.5u w=0.5u m=1
M16 N_57 N_5 N_11 GND mn5  l=0.5u w=0.5u m=1
M17 N_57 N_12 GND GND mn5  l=0.5u w=0.5u m=1
M18 N_25 SN GND GND mn5  l=0.5u w=0.5u m=1
M19 N_12 N_13 N_25 GND mn5  l=0.5u w=0.5u m=1
M20 N_25 N_11 N_12 GND mn5  l=0.5u w=0.5u m=1
M21 N_13 RN GND GND mn5  l=0.5u w=0.5u m=1
M22 N_14 N_12 GND GND mn5  l=0.5u w=0.5u m=1
M23 QN N_12 GND GND mn5  l=0.5u w=0.72u m=1
M24 Q N_14 GND GND mn5  l=0.5u w=0.72u m=1
M25 N_4 CKN VDD VDD mp5  l=0.42u w=0.52u m=1
M26 N_5 N_4 VDD VDD mp5  l=0.42u w=0.52u m=1
M27 N_6 SE VDD VDD mp5  l=0.42u w=0.52u m=1
M28 N_17 D VDD VDD mp5  l=0.42u w=0.52u m=1
M29 N_7 SE N_17 VDD mp5  l=0.42u w=0.52u m=1
M30 N_18 N_6 N_7 VDD mp5  l=0.42u w=0.52u m=1
M31 N_18 SI VDD VDD mp5  l=0.42u w=0.52u m=1
M32 N_9 N_4 N_7 VDD mp5  l=0.42u w=0.52u m=1
M33 N_19 N_5 N_9 VDD mp5  l=0.42u w=0.52u m=1
M34 N_19 N_10 VDD VDD mp5  l=0.42u w=0.52u m=1
M35 N_20 N_9 VDD VDD mp5  l=0.42u w=0.52u m=1
M36 N_20 N_13 N_10 VDD mp5  l=0.42u w=0.52u m=1
M37 N_10 SN VDD VDD mp5  l=0.42u w=0.52u m=1
M38 N_21 N_10 VDD VDD mp5  l=0.42u w=0.52u m=1
M39 N_21 N_5 N_11 VDD mp5  l=0.42u w=0.52u m=1
M40 N_22 N_4 N_11 VDD mp5  l=0.42u w=0.5u m=1
M41 N_22 N_12 VDD VDD mp5  l=0.42u w=0.5u m=1
M42 N_12 SN VDD VDD mp5  l=0.42u w=0.52u m=1
M43 N_23 N_13 N_12 VDD mp5  l=0.42u w=0.52u m=1
M44 N_23 N_11 VDD VDD mp5  l=0.42u w=0.52u m=1
M45 N_13 RN VDD VDD mp5  l=0.42u w=0.52u m=1
M46 QN N_12 VDD VDD mp5  l=0.42u w=0.96u m=1
M47 N_14 N_12 VDD VDD mp5  l=0.42u w=0.52u m=1
M48 Q N_14 VDD VDD mp5  l=0.42u w=0.96u m=1
.ends sdbfb2
* SPICE INPUT		Wed Jul 10 14:00:42 2019	sdbrb1
* EV_NETLIST Version AMD.64 Release B-2008.09.SP5.HF4.26013 2015/05/03
*
*The following line needed for Star-CR:
*CRU_OPT (KEEP_ELEMENTS "^[CR]D")
*
*The following line needed for CDL:
*.BIPOLAR

* Hierarchy Level 0

* Top of hierarchy  cell=sdbrb1
.subckt sdbrb1 VDD Q QN GND RN SN SI SE D CK
M1 N_4 CK GND GND mn5  l=0.5u w=0.5u m=1
M2 N_5 N_4 GND GND mn5  l=0.5u w=0.5u m=1
M3 N_6 SE GND GND mn5  l=0.5u w=0.5u m=1
M4 N_53 D GND GND mn5  l=0.5u w=0.5u m=1
M5 N_53 N_6 N_29 GND mn5  l=0.5u w=0.5u m=1
M6 N_54 SI N_29 GND mn5  l=0.5u w=0.5u m=1
M7 N_54 SE GND GND mn5  l=0.5u w=0.5u m=1
M8 N_9 N_4 N_29 GND mn5  l=0.5u w=0.5u m=1
M9 N_9 N_5 N_55 GND mn5  l=0.5u w=0.5u m=1
M10 N_55 N_10 GND GND mn5  l=0.5u w=0.5u m=1
M11 N_27 N_9 N_10 GND mn5  l=0.5u w=0.5u m=1
M12 N_27 N_13 N_10 GND mn5  l=0.5u w=0.5u m=1
M13 N_27 SN GND GND mn5  l=0.5u w=0.5u m=1
M14 N_56 N_10 GND GND mn5  l=0.5u w=0.5u m=1
M15 N_11 N_5 N_56 GND mn5  l=0.5u w=0.5u m=1
M16 N_57 N_4 N_11 GND mn5  l=0.5u w=0.5u m=1
M17 N_12 N_13 N_25 GND mn5  l=0.5u w=0.5u m=1
M18 N_25 N_11 N_12 GND mn5  l=0.5u w=0.5u m=1
M19 N_13 RN GND GND mn5  l=0.5u w=0.5u m=1
M20 N_14 N_12 GND GND mn5  l=0.5u w=0.5u m=1
M21 QN N_12 GND GND mn5  l=0.5u w=0.58u m=1
M22 Q N_14 GND GND mn5  l=0.5u w=0.58u m=1
M23 N_57 N_12 GND GND mn5  l=0.5u w=0.5u m=1
M24 N_25 SN GND GND mn5  l=0.5u w=0.5u m=1
M25 N_4 CK VDD VDD mp5  l=0.42u w=0.52u m=1
M26 N_5 N_4 VDD VDD mp5  l=0.42u w=0.52u m=1
M27 N_6 SE VDD VDD mp5  l=0.42u w=0.52u m=1
M28 N_17 D VDD VDD mp5  l=0.42u w=0.52u m=1
M29 N_7 SE N_17 VDD mp5  l=0.42u w=0.52u m=1
M30 N_18 N_6 N_7 VDD mp5  l=0.42u w=0.52u m=1
M31 N_18 SI VDD VDD mp5  l=0.42u w=0.52u m=1
M32 N_9 N_5 N_7 VDD mp5  l=0.42u w=0.52u m=1
M33 N_19 N_4 N_9 VDD mp5  l=0.42u w=0.5u m=1
M34 N_19 N_10 VDD VDD mp5  l=0.42u w=0.5u m=1
M35 N_20 N_9 VDD VDD mp5  l=0.42u w=0.52u m=1
M36 N_20 N_13 N_10 VDD mp5  l=0.42u w=0.52u m=1
M37 N_10 SN VDD VDD mp5  l=0.42u w=0.52u m=1
M38 N_21 N_10 VDD VDD mp5  l=0.42u w=0.52u m=1
M39 N_21 N_4 N_11 VDD mp5  l=0.42u w=0.52u m=1
M40 N_22 N_5 N_11 VDD mp5  l=0.42u w=0.5u m=1
M41 N_23 N_13 N_12 VDD mp5  l=0.42u w=0.52u m=1
M42 N_23 N_11 VDD VDD mp5  l=0.42u w=0.52u m=1
M43 N_13 RN VDD VDD mp5  l=0.42u w=0.52u m=1
M44 QN N_12 VDD VDD mp5  l=0.42u w=0.76u m=1
M45 N_14 N_12 VDD VDD mp5  l=0.42u w=0.52u m=1
M46 Q N_14 VDD VDD mp5  l=0.42u w=0.76u m=1
M47 N_22 N_12 VDD VDD mp5  l=0.42u w=0.5u m=1
M48 N_12 SN VDD VDD mp5  l=0.42u w=0.52u m=1
.ends sdbrb1
* SPICE INPUT		Wed Jul 10 14:00:50 2019	sdbrb2
* EV_NETLIST Version AMD.64 Release B-2008.09.SP5.HF4.26013 2015/05/03
*
*The following line needed for Star-CR:
*CRU_OPT (KEEP_ELEMENTS "^[CR]D")
*
*The following line needed for CDL:
*.BIPOLAR

* Hierarchy Level 0

* Top of hierarchy  cell=sdbrb2
.subckt sdbrb2 VDD Q QN GND RN SN SI SE D CK
M1 N_4 CK GND GND mn5  l=0.5u w=0.5u m=1
M2 N_5 N_4 GND GND mn5  l=0.5u w=0.5u m=1
M3 N_6 SE GND GND mn5  l=0.5u w=0.5u m=1
M4 N_53 D GND GND mn5  l=0.5u w=0.5u m=1
M5 N_53 N_6 N_29 GND mn5  l=0.5u w=0.5u m=1
M6 N_54 SI N_29 GND mn5  l=0.5u w=0.5u m=1
M7 N_54 SE GND GND mn5  l=0.5u w=0.5u m=1
M8 N_9 N_4 N_29 GND mn5  l=0.5u w=0.5u m=1
M9 N_9 N_5 N_55 GND mn5  l=0.5u w=0.5u m=1
M10 N_55 N_10 GND GND mn5  l=0.5u w=0.5u m=1
M11 N_27 N_9 N_10 GND mn5  l=0.5u w=0.5u m=1
M12 N_27 N_13 N_10 GND mn5  l=0.5u w=0.5u m=1
M13 N_27 SN GND GND mn5  l=0.5u w=0.5u m=1
M14 N_56 N_10 GND GND mn5  l=0.5u w=0.5u m=1
M15 N_11 N_5 N_56 GND mn5  l=0.5u w=0.5u m=1
M16 N_57 N_4 N_11 GND mn5  l=0.5u w=0.5u m=1
M17 N_25 N_11 N_12 GND mn5  l=0.5u w=0.5u m=1
M18 N_13 RN GND GND mn5  l=0.5u w=0.5u m=1
M19 N_14 N_12 GND GND mn5  l=0.5u w=0.5u m=1
M20 QN N_12 GND GND mn5  l=0.5u w=0.72u m=1
M21 Q N_14 GND GND mn5  l=0.5u w=0.72u m=1
M22 N_57 N_12 GND GND mn5  l=0.5u w=0.5u m=1
M23 N_25 SN GND GND mn5  l=0.5u w=0.5u m=1
M24 N_12 N_13 N_25 GND mn5  l=0.5u w=0.5u m=1
M25 N_4 CK VDD VDD mp5  l=0.42u w=0.52u m=1
M26 N_5 N_4 VDD VDD mp5  l=0.42u w=0.52u m=1
M27 N_6 SE VDD VDD mp5  l=0.42u w=0.52u m=1
M28 N_17 D VDD VDD mp5  l=0.42u w=0.52u m=1
M29 N_7 SE N_17 VDD mp5  l=0.42u w=0.52u m=1
M30 N_18 N_6 N_7 VDD mp5  l=0.42u w=0.52u m=1
M31 N_18 SI VDD VDD mp5  l=0.42u w=0.52u m=1
M32 N_9 N_5 N_7 VDD mp5  l=0.42u w=0.52u m=1
M33 N_19 N_4 N_9 VDD mp5  l=0.42u w=0.5u m=1
M34 N_19 N_10 VDD VDD mp5  l=0.42u w=0.5u m=1
M35 N_20 N_9 VDD VDD mp5  l=0.42u w=0.52u m=1
M36 N_20 N_13 N_10 VDD mp5  l=0.42u w=0.52u m=1
M37 N_10 SN VDD VDD mp5  l=0.42u w=0.52u m=1
M38 N_21 N_10 VDD VDD mp5  l=0.42u w=0.52u m=1
M39 N_21 N_4 N_11 VDD mp5  l=0.42u w=0.52u m=1
M40 N_22 N_5 N_11 VDD mp5  l=0.42u w=0.5u m=1
M41 N_23 N_11 VDD VDD mp5  l=0.42u w=0.52u m=1
M42 N_13 RN VDD VDD mp5  l=0.42u w=0.52u m=1
M43 QN N_12 VDD VDD mp5  l=0.42u w=0.96u m=1
M44 N_14 N_12 VDD VDD mp5  l=0.42u w=0.52u m=1
M45 Q N_14 VDD VDD mp5  l=0.42u w=0.96u m=1
M46 N_22 N_12 VDD VDD mp5  l=0.42u w=0.5u m=1
M47 N_12 SN VDD VDD mp5  l=0.42u w=0.52u m=1
M48 N_23 N_13 N_12 VDD mp5  l=0.42u w=0.52u m=1
.ends sdbrb2
* SPICE INPUT		Wed Jul 10 14:00:57 2019	sdbrq1
* EV_NETLIST Version AMD.64 Release B-2008.09.SP5.HF4.26013 2015/05/03
*
*The following line needed for Star-CR:
*CRU_OPT (KEEP_ELEMENTS "^[CR]D")
*
*The following line needed for CDL:
*.BIPOLAR

* Hierarchy Level 0

* Top of hierarchy  cell=sdbrq1
.subckt sdbrq1 VDD Q GND RN SN SI SE D CK
M1 N_4 CK GND GND mn5  l=0.5u w=0.5u m=1
M2 N_5 N_4 GND GND mn5  l=0.5u w=0.5u m=1
M3 N_6 SE GND GND mn5  l=0.5u w=0.5u m=1
M4 N_35 D GND GND mn5  l=0.5u w=0.5u m=1
M5 N_35 N_6 N_30 GND mn5  l=0.5u w=0.5u m=1
M6 N_36 SI N_30 GND mn5  l=0.5u w=0.5u m=1
M7 N_36 SE GND GND mn5  l=0.5u w=0.5u m=1
M8 N_9 N_4 N_30 GND mn5  l=0.5u w=0.5u m=1
M9 N_9 N_5 N_37 GND mn5  l=0.5u w=0.5u m=1
M10 N_37 N_10 GND GND mn5  l=0.5u w=0.5u m=1
M11 N_28 N_9 N_10 GND mn5  l=0.5u w=0.5u m=1
M12 N_28 N_3 N_10 GND mn5  l=0.5u w=0.5u m=1
M13 N_28 SN GND GND mn5  l=0.5u w=0.5u m=1
M14 N_38 N_10 GND GND mn5  l=0.5u w=0.5u m=1
M15 N_11 N_5 N_38 GND mn5  l=0.5u w=0.5u m=1
M16 Q N_11 N_24 GND mn5  l=0.5u w=0.58u m=1
M17 N_24 N_3 Q GND mn5  l=0.5u w=0.58u m=1
M18 N_24 SN GND GND mn5  l=0.5u w=0.58u m=1
M19 N_3 RN GND GND mn5  l=0.5u w=0.5u m=1
M20 N_39 N_4 N_11 GND mn5  l=0.5u w=0.5u m=1
M21 N_39 N_12 GND GND mn5  l=0.5u w=0.5u m=1
M22 N_12 N_3 N_26 GND mn5  l=0.5u w=0.5u m=1
M23 N_26 N_11 N_12 GND mn5  l=0.5u w=0.5u m=1
M24 N_26 SN GND GND mn5  l=0.5u w=0.5u m=1
M25 N_4 CK VDD VDD mp5  l=0.42u w=0.52u m=1
M26 N_5 N_4 VDD VDD mp5  l=0.42u w=0.52u m=1
M27 N_6 SE VDD VDD mp5  l=0.42u w=0.52u m=1
M28 N_15 D VDD VDD mp5  l=0.42u w=0.52u m=1
M29 N_7 SE N_15 VDD mp5  l=0.42u w=0.52u m=1
M30 N_16 N_6 N_7 VDD mp5  l=0.42u w=0.52u m=1
M31 N_16 SI VDD VDD mp5  l=0.42u w=0.52u m=1
M32 N_9 N_5 N_7 VDD mp5  l=0.42u w=0.52u m=1
M33 N_17 N_4 N_9 VDD mp5  l=0.42u w=0.5u m=1
M34 N_17 N_10 VDD VDD mp5  l=0.42u w=0.5u m=1
M35 N_18 N_9 VDD VDD mp5  l=0.42u w=0.52u m=1
M36 N_18 N_3 N_10 VDD mp5  l=0.42u w=0.52u m=1
M37 N_10 SN VDD VDD mp5  l=0.42u w=0.52u m=1
M38 N_19 N_10 VDD VDD mp5  l=0.42u w=0.52u m=1
M39 N_19 N_4 N_11 VDD mp5  l=0.42u w=0.52u m=1
M40 N_20 N_5 N_11 VDD mp5  l=0.42u w=0.5u m=1
M41 N_22 N_11 VDD VDD mp5  l=0.42u w=0.76u m=1
M42 Q N_3 N_22 VDD mp5  l=0.42u w=0.76u m=1
M43 Q SN VDD VDD mp5  l=0.42u w=0.76u m=1
M44 N_3 RN VDD VDD mp5  l=0.42u w=0.52u m=1
M45 N_20 N_12 VDD VDD mp5  l=0.42u w=0.5u m=1
M46 N_21 N_3 N_12 VDD mp5  l=0.42u w=0.5u m=1
M47 N_21 N_11 VDD VDD mp5  l=0.42u w=0.5u m=1
M48 N_12 SN VDD VDD mp5  l=0.42u w=0.5u m=1
.ends sdbrq1
* SPICE INPUT		Wed Jul 10 14:01:05 2019	sdbrq2
* EV_NETLIST Version AMD.64 Release B-2008.09.SP5.HF4.26013 2015/05/03
*
*The following line needed for Star-CR:
*CRU_OPT (KEEP_ELEMENTS "^[CR]D")
*
*The following line needed for CDL:
*.BIPOLAR

* Hierarchy Level 0

* Top of hierarchy  cell=sdbrq2
.subckt sdbrq2 VDD Q GND RN SN SI SE D CK
M1 N_4 CK GND GND mn5  l=0.5u w=0.5u m=1
M2 N_5 N_4 GND GND mn5  l=0.5u w=0.5u m=1
M3 N_6 SE GND GND mn5  l=0.5u w=0.5u m=1
M4 N_35 D GND GND mn5  l=0.5u w=0.5u m=1
M5 N_35 N_6 N_30 GND mn5  l=0.5u w=0.5u m=1
M6 N_36 SI N_30 GND mn5  l=0.5u w=0.5u m=1
M7 N_36 SE GND GND mn5  l=0.5u w=0.5u m=1
M8 N_9 N_4 N_30 GND mn5  l=0.5u w=0.5u m=1
M9 N_9 N_5 N_37 GND mn5  l=0.5u w=0.5u m=1
M10 N_37 N_10 GND GND mn5  l=0.5u w=0.5u m=1
M11 N_28 N_9 N_10 GND mn5  l=0.5u w=0.5u m=1
M12 N_28 N_3 N_10 GND mn5  l=0.5u w=0.5u m=1
M13 N_28 SN GND GND mn5  l=0.5u w=0.5u m=1
M14 N_38 N_10 GND GND mn5  l=0.5u w=0.5u m=1
M15 N_12 N_3 N_26 GND mn5  l=0.5u w=0.5u m=1
M16 N_26 N_11 N_12 GND mn5  l=0.5u w=0.5u m=1
M17 N_26 SN GND GND mn5  l=0.5u w=0.5u m=1
M18 Q N_11 N_24 GND mn5  l=0.5u w=0.72u m=1
M19 N_24 N_3 Q GND mn5  l=0.5u w=0.72u m=1
M20 N_24 SN GND GND mn5  l=0.5u w=0.72u m=1
M21 N_3 RN GND GND mn5  l=0.5u w=0.5u m=1
M22 N_11 N_5 N_38 GND mn5  l=0.5u w=0.5u m=1
M23 N_39 N_4 N_11 GND mn5  l=0.5u w=0.5u m=1
M24 N_39 N_12 GND GND mn5  l=0.5u w=0.5u m=1
M25 N_4 CK VDD VDD mp5  l=0.42u w=0.52u m=1
M26 N_5 N_4 VDD VDD mp5  l=0.42u w=0.52u m=1
M27 N_6 SE VDD VDD mp5  l=0.42u w=0.52u m=1
M28 N_15 D VDD VDD mp5  l=0.42u w=0.52u m=1
M29 N_7 SE N_15 VDD mp5  l=0.42u w=0.52u m=1
M30 N_16 N_6 N_7 VDD mp5  l=0.42u w=0.52u m=1
M31 N_16 SI VDD VDD mp5  l=0.42u w=0.52u m=1
M32 N_9 N_5 N_7 VDD mp5  l=0.42u w=0.52u m=1
M33 N_17 N_4 N_9 VDD mp5  l=0.42u w=0.5u m=1
M34 N_17 N_10 VDD VDD mp5  l=0.42u w=0.5u m=1
M35 N_18 N_9 VDD VDD mp5  l=0.42u w=0.52u m=1
M36 N_18 N_3 N_10 VDD mp5  l=0.42u w=0.52u m=1
M37 N_10 SN VDD VDD mp5  l=0.42u w=0.52u m=1
M38 N_19 N_10 VDD VDD mp5  l=0.42u w=0.52u m=1
M39 N_19 N_4 N_11 VDD mp5  l=0.42u w=0.52u m=1
M40 N_21 N_3 N_12 VDD mp5  l=0.42u w=0.5u m=1
M41 N_21 N_11 VDD VDD mp5  l=0.42u w=0.5u m=1
M42 N_12 SN VDD VDD mp5  l=0.42u w=0.5u m=1
M43 N_22 N_11 VDD VDD mp5  l=0.42u w=0.96u m=1
M44 Q N_3 N_22 VDD mp5  l=0.42u w=0.96u m=1
M45 Q SN VDD VDD mp5  l=0.42u w=0.96u m=1
M46 N_3 RN VDD VDD mp5  l=0.42u w=0.52u m=1
M47 N_20 N_5 N_11 VDD mp5  l=0.42u w=0.5u m=1
M48 N_20 N_12 VDD VDD mp5  l=0.42u w=0.5u m=1
.ends sdbrq2
* SPICE INPUT		Wed Jul 10 14:01:12 2019	sdcfb1
* EV_NETLIST Version AMD.64 Release B-2008.09.SP5.HF4.26013 2015/05/03
*
*The following line needed for Star-CR:
*CRU_OPT (KEEP_ELEMENTS "^[CR]D")
*
*The following line needed for CDL:
*.BIPOLAR

* Hierarchy Level 0

* Top of hierarchy  cell=sdcfb1
.subckt sdcfb1 VDD Q QN GND RN SI SE D CKN
M1 N_4 N_5 GND GND mn5  l=0.5u w=0.5u m=1
M2 N_5 CKN GND GND mn5  l=0.5u w=0.5u m=1
M3 N_6 SE GND GND mn5  l=0.5u w=0.5u m=1
M4 N_46 D GND GND mn5  l=0.5u w=0.5u m=1
M5 N_26 N_6 N_46 GND mn5  l=0.5u w=0.5u m=1
M6 N_47 SI N_26 GND mn5  l=0.5u w=0.5u m=1
M7 N_47 SE GND GND mn5  l=0.5u w=0.5u m=1
M8 N_9 N_4 N_26 GND mn5  l=0.5u w=0.5u m=1
M9 N_48 N_5 N_9 GND mn5  l=0.5u w=0.5u m=1
M10 N_48 N_10 GND GND mn5  l=0.5u w=0.5u m=1
M11 N_10 N_9 GND GND mn5  l=0.5u w=0.5u m=1
M12 N_10 N_13 GND GND mn5  l=0.5u w=0.5u m=1
M13 N_49 N_10 GND GND mn5  l=0.5u w=0.5u m=1
M14 N_11 N_5 N_49 GND mn5  l=0.5u w=0.5u m=1
M15 N_50 N_4 N_11 GND mn5  l=0.5u w=0.5u m=1
M16 N_50 N_12 GND GND mn5  l=0.5u w=0.5u m=1
M17 N_12 N_11 GND GND mn5  l=0.5u w=0.5u m=1
M18 N_12 N_13 GND GND mn5  l=0.5u w=0.5u m=1
M19 N_14 N_12 GND GND mn5  l=0.5u w=0.5u m=1
M20 QN N_12 GND GND mn5  l=0.5u w=0.58u m=1
M21 N_13 RN GND GND mn5  l=0.5u w=0.5u m=1
M22 Q N_14 GND GND mn5  l=0.5u w=0.58u m=1
M23 N_4 N_5 VDD VDD mp5  l=0.42u w=0.52u m=1
M24 N_5 CKN VDD VDD mp5  l=0.42u w=0.52u m=1
M25 N_6 SE VDD VDD mp5  l=0.42u w=0.52u m=1
M26 N_17 D VDD VDD mp5  l=0.42u w=0.52u m=1
M27 N_7 SE N_17 VDD mp5  l=0.42u w=0.52u m=1
M28 N_18 N_6 N_7 VDD mp5  l=0.42u w=0.52u m=1
M29 N_18 SI VDD VDD mp5  l=0.42u w=0.52u m=1
M30 N_9 N_5 N_7 VDD mp5  l=0.42u w=0.52u m=1
M31 N_19 N_4 N_9 VDD mp5  l=0.42u w=0.5u m=1
M32 N_19 N_10 VDD VDD mp5  l=0.42u w=0.5u m=1
M33 N_20 N_9 VDD VDD mp5  l=0.42u w=0.52u m=1
M34 N_10 N_13 N_20 VDD mp5  l=0.42u w=0.52u m=1
M35 N_21 N_10 VDD VDD mp5  l=0.42u w=0.52u m=1
M36 N_21 N_4 N_11 VDD mp5  l=0.42u w=0.52u m=1
M37 N_22 N_5 N_11 VDD mp5  l=0.42u w=0.5u m=1
M38 N_22 N_12 VDD VDD mp5  l=0.42u w=0.5u m=1
M39 N_23 N_11 VDD VDD mp5  l=0.42u w=0.52u m=1
M40 N_12 N_13 N_23 VDD mp5  l=0.42u w=0.52u m=1
M41 QN N_12 VDD VDD mp5  l=0.42u w=0.76u m=1
M42 N_14 N_12 VDD VDD mp5  l=0.42u w=0.5u m=1
M43 N_13 RN VDD VDD mp5  l=0.42u w=0.52u m=1
M44 Q N_14 VDD VDD mp5  l=0.42u w=0.76u m=1
.ends sdcfb1
* SPICE INPUT		Wed Jul 10 14:01:19 2019	sdcfb2
* EV_NETLIST Version AMD.64 Release B-2008.09.SP5.HF4.26013 2015/05/03
*
*The following line needed for Star-CR:
*CRU_OPT (KEEP_ELEMENTS "^[CR]D")
*
*The following line needed for CDL:
*.BIPOLAR

* Hierarchy Level 0

* Top of hierarchy  cell=sdcfb2
.subckt sdcfb2 VDD Q QN GND CKN D SE SI RN
M1 N_4 N_5 GND GND mn5  l=0.5u w=0.5u m=1
M2 N_5 CKN GND GND mn5  l=0.5u w=0.5u m=1
M3 N_14 N_12 GND GND mn5  l=0.5u w=0.5u m=1
M4 QN N_12 GND GND mn5  l=0.5u w=0.72u m=1
M5 Q N_14 GND GND mn5  l=0.5u w=0.72u m=1
M6 N_6 SE GND GND mn5  l=0.5u w=0.5u m=1
M7 N_12 N_11 GND GND mn5  l=0.5u w=0.5u m=1
M8 N_12 N_13 GND GND mn5  l=0.5u w=0.5u m=1
M9 N_46 D GND GND mn5  l=0.5u w=0.5u m=1
M10 N_11 N_5 N_49 GND mn5  l=0.5u w=0.5u m=1
M11 N_50 N_4 N_11 GND mn5  l=0.5u w=0.5u m=1
M12 N_50 N_12 GND GND mn5  l=0.5u w=0.5u m=1
M13 N_28 N_6 N_46 GND mn5  l=0.5u w=0.5u m=1
M14 N_47 SI N_28 GND mn5  l=0.5u w=0.5u m=1
M15 N_47 SE GND GND mn5  l=0.5u w=0.5u m=1
M16 N_9 N_4 N_28 GND mn5  l=0.5u w=0.5u m=1
M17 N_48 N_5 N_9 GND mn5  l=0.5u w=0.5u m=1
M18 N_48 N_10 GND GND mn5  l=0.5u w=0.5u m=1
M19 N_10 N_9 GND GND mn5  l=0.5u w=0.5u m=1
M20 N_10 N_13 GND GND mn5  l=0.5u w=0.5u m=1
M21 N_49 N_10 GND GND mn5  l=0.5u w=0.5u m=1
M22 N_13 RN GND GND mn5  l=0.5u w=0.5u m=1
M23 N_4 N_5 VDD VDD mp5  l=0.42u w=0.52u m=1
M24 N_5 CKN VDD VDD mp5  l=0.42u w=0.52u m=1
M25 QN N_12 VDD VDD mp5  l=0.42u w=0.96u m=1
M26 N_14 N_12 VDD VDD mp5  l=0.42u w=0.5u m=1
M27 Q N_14 VDD VDD mp5  l=0.42u w=0.96u m=1
M28 N_6 SE VDD VDD mp5  l=0.42u w=0.52u m=1
M29 N_23 N_11 VDD VDD mp5  l=0.42u w=0.52u m=1
M30 N_12 N_13 N_23 VDD mp5  l=0.42u w=0.52u m=1
M31 N_17 D VDD VDD mp5  l=0.42u w=0.52u m=1
M32 N_22 N_5 N_11 VDD mp5  l=0.42u w=0.5u m=1
M33 N_22 N_12 VDD VDD mp5  l=0.42u w=0.5u m=1
M34 N_7 SE N_17 VDD mp5  l=0.42u w=0.52u m=1
M35 N_18 N_6 N_7 VDD mp5  l=0.42u w=0.52u m=1
M36 N_18 SI VDD VDD mp5  l=0.42u w=0.52u m=1
M37 N_9 N_5 N_7 VDD mp5  l=0.42u w=0.52u m=1
M38 N_19 N_4 N_9 VDD mp5  l=0.42u w=0.5u m=1
M39 N_19 N_10 VDD VDD mp5  l=0.42u w=0.5u m=1
M40 N_20 N_9 VDD VDD mp5  l=0.42u w=0.52u m=1
M41 N_10 N_13 N_20 VDD mp5  l=0.42u w=0.52u m=1
M42 N_21 N_10 VDD VDD mp5  l=0.42u w=0.52u m=1
M43 N_21 N_4 N_11 VDD mp5  l=0.42u w=0.52u m=1
M44 N_13 RN VDD VDD mp5  l=0.42u w=0.52u m=1
.ends sdcfb2
* SPICE INPUT		Wed Jul 10 14:01:27 2019	sdcfq1
* EV_NETLIST Version AMD.64 Release B-2008.09.SP5.HF4.26013 2015/05/03
*
*The following line needed for Star-CR:
*CRU_OPT (KEEP_ELEMENTS "^[CR]D")
*
*The following line needed for CDL:
*.BIPOLAR

* Hierarchy Level 0

* Top of hierarchy  cell=sdcfq1
.subckt sdcfq1 VDD Q GND CKN D SE SI RN
M1 N_4 N_5 GND GND mn5  l=0.5u w=0.5u m=1
M2 N_5 CKN GND GND mn5  l=0.5u w=0.5u m=1
M3 N_11 N_5 N_47 GND mn5  l=0.5u w=0.5u m=1
M4 N_48 N_4 N_11 GND mn5  l=0.5u w=0.5u m=1
M5 N_6 SE GND GND mn5  l=0.5u w=0.5u m=1
M6 N_48 N_12 GND GND mn5  l=0.5u w=0.5u m=1
M7 N_12 N_11 GND GND mn5  l=0.5u w=0.5u m=1
M8 N_12 N_13 GND GND mn5  l=0.5u w=0.5u m=1
M9 N_44 D GND GND mn5  l=0.5u w=0.5u m=1
M10 N_13 RN GND GND mn5  l=0.5u w=0.5u m=1
M11 N_14 N_12 GND GND mn5  l=0.5u w=0.5u m=1
M12 Q N_14 GND GND mn5  l=0.5u w=0.58u m=1
M13 N_27 N_6 N_44 GND mn5  l=0.5u w=0.5u m=1
M14 N_45 SI N_27 GND mn5  l=0.5u w=0.5u m=1
M15 N_45 SE GND GND mn5  l=0.5u w=0.5u m=1
M16 N_9 N_4 N_27 GND mn5  l=0.5u w=0.5u m=1
M17 N_46 N_5 N_9 GND mn5  l=0.5u w=0.5u m=1
M18 N_46 N_10 GND GND mn5  l=0.5u w=0.5u m=1
M19 N_10 N_9 GND GND mn5  l=0.5u w=0.5u m=1
M20 N_10 N_13 GND GND mn5  l=0.5u w=0.5u m=1
M21 N_47 N_10 GND GND mn5  l=0.5u w=0.5u m=1
M22 N_4 N_5 VDD VDD mp5  l=0.42u w=0.52u m=1
M23 N_5 CKN VDD VDD mp5  l=0.42u w=0.52u m=1
M24 N_21 N_5 N_11 VDD mp5  l=0.42u w=0.5u m=1
M25 N_6 SE VDD VDD mp5  l=0.42u w=0.52u m=1
M26 N_21 N_12 VDD VDD mp5  l=0.42u w=0.5u m=1
M27 N_22 N_11 VDD VDD mp5  l=0.42u w=0.52u m=1
M28 N_12 N_13 N_22 VDD mp5  l=0.42u w=0.52u m=1
M29 N_16 D VDD VDD mp5  l=0.42u w=0.52u m=1
M30 N_13 RN VDD VDD mp5  l=0.42u w=0.52u m=1
M31 N_14 N_12 VDD VDD mp5  l=0.42u w=0.52u m=1
M32 Q N_14 VDD VDD mp5  l=0.42u w=0.76u m=1
M33 N_7 SE N_16 VDD mp5  l=0.42u w=0.52u m=1
M34 N_17 N_6 N_7 VDD mp5  l=0.42u w=0.52u m=1
M35 N_17 SI VDD VDD mp5  l=0.42u w=0.52u m=1
M36 N_9 N_5 N_7 VDD mp5  l=0.42u w=0.52u m=1
M37 N_18 N_4 N_9 VDD mp5  l=0.42u w=0.5u m=1
M38 N_18 N_10 VDD VDD mp5  l=0.42u w=0.5u m=1
M39 N_19 N_9 VDD VDD mp5  l=0.42u w=0.52u m=1
M40 N_10 N_13 N_19 VDD mp5  l=0.42u w=0.52u m=1
M41 N_20 N_10 VDD VDD mp5  l=0.42u w=0.52u m=1
M42 N_20 N_4 N_11 VDD mp5  l=0.42u w=0.52u m=1
.ends sdcfq1
* SPICE INPUT		Wed Jul 10 14:01:34 2019	sdcfq2
* EV_NETLIST Version AMD.64 Release B-2008.09.SP5.HF4.26013 2015/05/03
*
*The following line needed for Star-CR:
*CRU_OPT (KEEP_ELEMENTS "^[CR]D")
*
*The following line needed for CDL:
*.BIPOLAR

* Hierarchy Level 0

* Top of hierarchy  cell=sdcfq2
.subckt sdcfq2 VDD Q GND RN SI SE D CKN
M1 N_4 N_5 GND GND mn5  l=0.5u w=0.5u m=1
M2 N_5 CKN GND GND mn5  l=0.5u w=0.5u m=1
M3 N_48 N_4 N_11 GND mn5  l=0.5u w=0.5u m=1
M4 N_6 SE GND GND mn5  l=0.5u w=0.5u m=1
M5 N_48 N_12 GND GND mn5  l=0.5u w=0.5u m=1
M6 N_12 N_11 GND GND mn5  l=0.5u w=0.5u m=1
M7 N_12 N_13 GND GND mn5  l=0.5u w=0.5u m=1
M8 N_44 D GND GND mn5  l=0.5u w=0.5u m=1
M9 Q N_14 GND GND mn5  l=0.5u w=0.72u m=1
M10 N_14 N_12 GND GND mn5  l=0.5u w=0.5u m=1
M11 N_13 RN GND GND mn5  l=0.5u w=0.5u m=1
M12 N_25 N_6 N_44 GND mn5  l=0.5u w=0.5u m=1
M13 N_45 SI N_25 GND mn5  l=0.5u w=0.5u m=1
M14 N_45 SE GND GND mn5  l=0.5u w=0.5u m=1
M15 N_9 N_4 N_25 GND mn5  l=0.5u w=0.5u m=1
M16 N_46 N_5 N_9 GND mn5  l=0.5u w=0.5u m=1
M17 N_46 N_10 GND GND mn5  l=0.5u w=0.5u m=1
M18 N_10 N_9 GND GND mn5  l=0.5u w=0.5u m=1
M19 N_10 N_13 GND GND mn5  l=0.5u w=0.5u m=1
M20 N_47 N_10 GND GND mn5  l=0.5u w=0.5u m=1
M21 N_11 N_5 N_47 GND mn5  l=0.5u w=0.5u m=1
M22 N_4 N_5 VDD VDD mp5  l=0.42u w=0.52u m=1
M23 N_5 CKN VDD VDD mp5  l=0.42u w=0.52u m=1
M24 N_6 SE VDD VDD mp5  l=0.42u w=0.52u m=1
M25 N_21 N_12 VDD VDD mp5  l=0.42u w=0.5u m=1
M26 N_22 N_11 VDD VDD mp5  l=0.42u w=0.52u m=1
M27 N_12 N_13 N_22 VDD mp5  l=0.42u w=0.52u m=1
M28 N_16 D VDD VDD mp5  l=0.42u w=0.52u m=1
M29 Q N_14 VDD VDD mp5  l=0.42u w=0.96u m=1
M30 N_14 N_12 VDD VDD mp5  l=0.42u w=0.52u m=1
M31 N_13 RN VDD VDD mp5  l=0.42u w=0.52u m=1
M32 N_7 SE N_16 VDD mp5  l=0.42u w=0.52u m=1
M33 N_17 N_6 N_7 VDD mp5  l=0.42u w=0.52u m=1
M34 N_17 SI VDD VDD mp5  l=0.42u w=0.52u m=1
M35 N_9 N_5 N_7 VDD mp5  l=0.42u w=0.52u m=1
M36 N_18 N_4 N_9 VDD mp5  l=0.42u w=0.5u m=1
M37 N_18 N_10 VDD VDD mp5  l=0.42u w=0.5u m=1
M38 N_19 N_9 VDD VDD mp5  l=0.42u w=0.52u m=1
M39 N_10 N_13 N_19 VDD mp5  l=0.42u w=0.52u m=1
M40 N_20 N_10 VDD VDD mp5  l=0.42u w=0.52u m=1
M41 N_20 N_4 N_11 VDD mp5  l=0.42u w=0.52u m=1
M42 N_21 N_5 N_11 VDD mp5  l=0.42u w=0.5u m=1
.ends sdcfq2
* SPICE INPUT		Wed Jul 10 14:01:41 2019	sdcrb1
* EV_NETLIST Version AMD.64 Release B-2008.09.SP5.HF4.26013 2015/05/03
*
*The following line needed for Star-CR:
*CRU_OPT (KEEP_ELEMENTS "^[CR]D")
*
*The following line needed for CDL:
*.BIPOLAR

* Hierarchy Level 0

* Top of hierarchy  cell=sdcrb1
.subckt sdcrb1 VDD Q QN GND RN SI SE D CK
M1 N_4 N_5 GND GND mn5  l=0.5u w=0.5u m=1
M2 N_5 CK GND GND mn5  l=0.5u w=0.5u m=1
M3 Q N_14 GND GND mn5  l=0.5u w=0.58u m=1
M4 N_14 N_12 GND GND mn5  l=0.5u w=0.5u m=1
M5 QN N_12 GND GND mn5  l=0.5u w=0.58u m=1
M6 N_6 SE GND GND mn5  l=0.5u w=0.5u m=1
M7 N_13 RN GND GND mn5  l=0.5u w=0.5u m=1
M8 N_12 N_13 GND GND mn5  l=0.5u w=0.5u m=1
M9 N_12 N_11 GND GND mn5  l=0.5u w=0.5u m=1
M10 N_46 D GND GND mn5  l=0.5u w=0.5u m=1
M11 N_50 N_12 GND GND mn5  l=0.5u w=0.5u m=1
M12 N_50 N_5 N_11 GND mn5  l=0.5u w=0.5u m=1
M13 N_11 N_4 N_49 GND mn5  l=0.5u w=0.5u m=1
M14 N_26 N_6 N_46 GND mn5  l=0.5u w=0.5u m=1
M15 N_47 SI N_26 GND mn5  l=0.5u w=0.5u m=1
M16 N_47 SE GND GND mn5  l=0.5u w=0.5u m=1
M17 N_9 N_5 N_26 GND mn5  l=0.5u w=0.5u m=1
M18 N_48 N_4 N_9 GND mn5  l=0.5u w=0.5u m=1
M19 N_48 N_10 GND GND mn5  l=0.5u w=0.5u m=1
M20 N_10 N_9 GND GND mn5  l=0.5u w=0.5u m=1
M21 N_10 N_13 GND GND mn5  l=0.5u w=0.5u m=1
M22 N_49 N_10 GND GND mn5  l=0.5u w=0.5u m=1
M23 N_4 N_5 VDD VDD mp5  l=0.42u w=0.52u m=1
M24 N_5 CK VDD VDD mp5  l=0.42u w=0.52u m=1
M25 Q N_14 VDD VDD mp5  l=0.42u w=0.76u m=1
M26 QN N_12 VDD VDD mp5  l=0.42u w=0.76u m=1
M27 N_14 N_12 VDD VDD mp5  l=0.42u w=0.52u m=1
M28 N_6 SE VDD VDD mp5  l=0.42u w=0.52u m=1
M29 N_13 RN VDD VDD mp5  l=0.42u w=0.52u m=1
M30 N_12 N_13 N_23 VDD mp5  l=0.42u w=0.52u m=1
M31 N_23 N_11 VDD VDD mp5  l=0.42u w=0.52u m=1
M32 N_17 D VDD VDD mp5  l=0.42u w=0.52u m=1
M33 N_22 N_12 VDD VDD mp5  l=0.42u w=0.5u m=1
M34 N_22 N_4 N_11 VDD mp5  l=0.42u w=0.5u m=1
M35 N_7 SE N_17 VDD mp5  l=0.42u w=0.52u m=1
M36 N_18 N_6 N_7 VDD mp5  l=0.42u w=0.52u m=1
M37 N_18 SI VDD VDD mp5  l=0.42u w=0.52u m=1
M38 N_9 N_4 N_7 VDD mp5  l=0.42u w=0.52u m=1
M39 N_19 N_5 N_9 VDD mp5  l=0.42u w=0.5u m=1
M40 N_19 N_10 VDD VDD mp5  l=0.42u w=0.5u m=1
M41 N_20 N_9 VDD VDD mp5  l=0.42u w=0.52u m=1
M42 N_10 N_13 N_20 VDD mp5  l=0.42u w=0.52u m=1
M43 N_21 N_10 VDD VDD mp5  l=0.42u w=0.52u m=1
M44 N_21 N_5 N_11 VDD mp5  l=0.42u w=0.52u m=1
.ends sdcrb1
* SPICE INPUT		Wed Jul 10 14:01:49 2019	sdcrb2
* EV_NETLIST Version AMD.64 Release B-2008.09.SP5.HF4.26013 2015/05/03
*
*The following line needed for Star-CR:
*CRU_OPT (KEEP_ELEMENTS "^[CR]D")
*
*The following line needed for CDL:
*.BIPOLAR

* Hierarchy Level 0

* Top of hierarchy  cell=sdcrb2
.subckt sdcrb2 VDD Q QN GND RN SI SE D CK
M1 N_4 N_5 GND GND mn5  l=0.5u w=0.5u m=1
M2 N_5 CK GND GND mn5  l=0.5u w=0.5u m=1
M3 Q N_14 GND GND mn5  l=0.5u w=0.72u m=1
M4 N_14 N_12 GND GND mn5  l=0.5u w=0.5u m=1
M5 QN N_12 GND GND mn5  l=0.5u w=0.72u m=1
M6 N_6 SE GND GND mn5  l=0.5u w=0.5u m=1
M7 N_13 RN GND GND mn5  l=0.5u w=0.5u m=1
M8 N_12 N_13 GND GND mn5  l=0.5u w=0.5u m=1
M9 N_12 N_11 GND GND mn5  l=0.5u w=0.5u m=1
M10 N_46 D GND GND mn5  l=0.5u w=0.5u m=1
M11 N_50 N_12 GND GND mn5  l=0.5u w=0.5u m=1
M12 N_50 N_5 N_11 GND mn5  l=0.5u w=0.5u m=1
M13 N_11 N_4 N_49 GND mn5  l=0.5u w=0.5u m=1
M14 N_26 N_6 N_46 GND mn5  l=0.5u w=0.5u m=1
M15 N_47 SI N_26 GND mn5  l=0.5u w=0.5u m=1
M16 N_47 SE GND GND mn5  l=0.5u w=0.5u m=1
M17 N_9 N_5 N_26 GND mn5  l=0.5u w=0.5u m=1
M18 N_48 N_4 N_9 GND mn5  l=0.5u w=0.5u m=1
M19 N_48 N_10 GND GND mn5  l=0.5u w=0.5u m=1
M20 N_10 N_9 GND GND mn5  l=0.5u w=0.5u m=1
M21 N_10 N_13 GND GND mn5  l=0.5u w=0.5u m=1
M22 N_49 N_10 GND GND mn5  l=0.5u w=0.5u m=1
M23 N_4 N_5 VDD VDD mp5  l=0.42u w=0.52u m=1
M24 N_5 CK VDD VDD mp5  l=0.42u w=0.52u m=1
M25 Q N_14 VDD VDD mp5  l=0.42u w=0.96u m=1
M26 QN N_12 VDD VDD mp5  l=0.42u w=0.96u m=1
M27 N_14 N_12 VDD VDD mp5  l=0.42u w=0.52u m=1
M28 N_6 SE VDD VDD mp5  l=0.42u w=0.52u m=1
M29 N_13 RN VDD VDD mp5  l=0.42u w=0.52u m=1
M30 N_12 N_13 N_23 VDD mp5  l=0.42u w=0.52u m=1
M31 N_23 N_11 VDD VDD mp5  l=0.42u w=0.52u m=1
M32 N_17 D VDD VDD mp5  l=0.42u w=0.52u m=1
M33 N_22 N_12 VDD VDD mp5  l=0.42u w=0.5u m=1
M34 N_22 N_4 N_11 VDD mp5  l=0.42u w=0.5u m=1
M35 N_7 SE N_17 VDD mp5  l=0.42u w=0.52u m=1
M36 N_18 N_6 N_7 VDD mp5  l=0.42u w=0.52u m=1
M37 N_18 SI VDD VDD mp5  l=0.42u w=0.52u m=1
M38 N_9 N_4 N_7 VDD mp5  l=0.42u w=0.52u m=1
M39 N_19 N_5 N_9 VDD mp5  l=0.42u w=0.5u m=1
M40 N_19 N_10 VDD VDD mp5  l=0.42u w=0.5u m=1
M41 N_20 N_9 VDD VDD mp5  l=0.42u w=0.52u m=1
M42 N_10 N_13 N_20 VDD mp5  l=0.42u w=0.52u m=1
M43 N_21 N_10 VDD VDD mp5  l=0.42u w=0.52u m=1
M44 N_21 N_5 N_11 VDD mp5  l=0.42u w=0.52u m=1
.ends sdcrb2
* SPICE INPUT		Wed Jul 10 14:01:56 2019	sdcrn1
* EV_NETLIST Version AMD.64 Release B-2008.09.SP5.HF4.26013 2015/05/03
*
*The following line needed for Star-CR:
*CRU_OPT (KEEP_ELEMENTS "^[CR]D")
*
*The following line needed for CDL:
*.BIPOLAR

* Hierarchy Level 0

* Top of hierarchy  cell=sdcrn1
.subckt sdcrn1 VDD QN GND RN SI SE D CK
M1 QN N_12 GND GND mn5  l=0.5u w=0.58u m=1
M2 N_4 N_5 GND GND mn5  l=0.5u w=0.5u m=1
M3 N_5 CK GND GND mn5  l=0.5u w=0.5u m=1
M4 N_6 SE GND GND mn5  l=0.5u w=0.5u m=1
M5 N_42 D GND GND mn5  l=0.5u w=0.5u m=1
M6 N_46 N_12 GND GND mn5  l=0.5u w=0.5u m=1
M7 N_46 N_5 N_11 GND mn5  l=0.5u w=0.5u m=1
M8 N_11 N_4 N_45 GND mn5  l=0.5u w=0.5u m=1
M9 N_13 RN GND GND mn5  l=0.5u w=0.5u m=1
M10 N_12 N_13 GND GND mn5  l=0.5u w=0.5u m=1
M11 N_12 N_11 GND GND mn5  l=0.5u w=0.5u m=1
M12 N_24 N_6 N_42 GND mn5  l=0.5u w=0.5u m=1
M13 N_43 SI N_24 GND mn5  l=0.5u w=0.5u m=1
M14 N_43 SE GND GND mn5  l=0.5u w=0.5u m=1
M15 N_9 N_5 N_24 GND mn5  l=0.5u w=0.5u m=1
M16 N_44 N_4 N_9 GND mn5  l=0.5u w=0.5u m=1
M17 N_44 N_10 GND GND mn5  l=0.5u w=0.5u m=1
M18 N_10 N_9 GND GND mn5  l=0.5u w=0.5u m=1
M19 N_10 N_13 GND GND mn5  l=0.5u w=0.5u m=1
M20 N_45 N_10 GND GND mn5  l=0.5u w=0.5u m=1
M21 QN N_12 VDD VDD mp5  l=0.42u w=0.76u m=1
M22 N_4 N_5 VDD VDD mp5  l=0.42u w=0.52u m=1