
.SUBCKT SDFFHQNX1MTR QN VDD VNW VPW VSS CK D SE SI
mX_g9_MXNA1 nmse SE VSS VPW n12 l=1.3e-07 w=1.8e-07
mXI16_MXNA1 XI16_n1 SI VSS VPW n12 l=1.3e-07 w=1.8e-07
mXI16_MXNOE nmsi SE XI16_n1 VPW n12 l=1.3e-07 w=1.8e-07
mXI65_MXNOE nmsi nmse nmin VPW n12 l=1.3e-07 w=1.8e-07
mX_g13_MXNA1 nmin D VSS VPW n12 l=1.3e-07 w=1.8e-07
MX_t6 cn CK VSS VPW n12 l=1.3e-07 w=1.8e-07
mX_g14_MXNA1 nck CK VSS VPW n12 l=1.3e-07 w=2.3e-07
mX_g10_MXNA1 c nck VSS VPW n12 l=1.3e-07 w=1.8e-07
MXN0 pm nmsi net71 VPW n12 l=1.3e-07 w=1.8e-07
MXN1 net71 cn VSS VPW n12 l=1.3e-07 w=1.8e-07
mXI6_MXNOE pm c XI6_n1 VPW n12 l=1.3e-07 w=1.8e-07
mXI6_MXNA1 XI6_n1 m VSS VPW n12 l=1.3e-07 w=1.8e-07
mX_g5_MXNA1 m pm VSS VPW n12 l=1.3e-07 w=2.4e-07
mXI59_MXNOE bm c m VPW n12 l=1.3e-07 w=1.8e-07
mXI7_MXNOE bm cn XI7_n1 VPW n12 l=1.3e-07 w=1.5e-07
mXI7_MXNA1 XI7_n1 s VSS VPW n12 l=1.3e-07 w=1.5e-07
mX_g2_MXNA1 s bm VSS VPW n12 l=1.3e-07 w=1.8e-07
mX_g1_MXNA1 QN s VSS VPW n12 l=1.3e-07 w=3.6e-07
mX_g9_MXPA1 nmse SE VDD VNW p12 l=1.3e-07 w=2.3e-07
mXI16_MXPA1 XI16_p1 SI VDD VNW p12 l=1.3e-07 w=2.3e-07
mXI16_MXPOEN nmsi nmse XI16_p1 VNW p12 l=1.3e-07 w=2.3e-07
mXI65_MXPOEN nmsi SE nmin VNW p12 l=1.3e-07 w=2.3e-07
mX_g13_MXPA1 nmin D VDD VNW p12 l=1.3e-07 w=2.3e-07
MX_t10 net48 CK VDD VNW p12 l=1.3e-07 w=4.2e-07
MXP0 net48 c cn VNW p12 l=1.3e-07 w=4.2e-07
mX_g14_MXPA1 nck CK VDD VNW p12 l=1.3e-07 w=2.3e-07
mX_g10_MXPA1 c nck VDD VNW p12 l=1.3e-07 w=5e-07
MX_t8 net60 c VDD VNW p12 l=1.3e-07 w=2.3e-07
MXP1 pm nmsi net60 VNW p12 l=1.3e-07 w=2.3e-07
mXI6_MXPOEN pm cn XI6_p1 VNW p12 l=1.3e-07 w=2.3e-07
mXI6_MXPA1 XI6_p1 m VDD VNW p12 l=1.3e-07 w=2.3e-07
mX_g5_MXPA1 m pm VDD VNW p12 l=1.3e-07 w=3.6e-07
mXI59_MXPOEN bm cn m VNW p12 l=1.3e-07 w=3.6e-07
mXI7_MXPOEN bm c XI7_p1 VNW p12 l=1.3e-07 w=1.5e-07
mXI7_MXPA1 XI7_p1 s VDD VNW p12 l=1.3e-07 w=1.5e-07
mX_g2_MXPA1 s bm VDD VNW p12 l=1.3e-07 w=2.3e-07
mX_g1_MXPA1 QN s VDD VNW p12 l=1.3e-07 w=6.2e-07
.ends


.SUBCKT SDFFHQNX2MTR QN VDD VNW VPW VSS CK D SE SI
mX_g9_MXNA1 nmse SE VSS VPW n12 l=1.3e-07 w=1.8e-07
mXI16_MXNA1 XI16_n1 SI VSS VPW n12 l=1.3e-07 w=1.8e-07
mXI16_MXNOE nmsi SE XI16_n1 VPW n12 l=1.3e-07 w=1.8e-07
mXI65_MXNOE nmsi nmse nmin VPW n12 l=1.3e-07 w=1.8e-07
mX_g13_MXNA1 nmin D VSS VPW n12 l=1.3e-07 w=1.8e-07
MX_t6 cn CK VSS VPW n12 l=1.3e-07 w=1.8e-07
mX_g14_MXNA1 nck CK VSS VPW n12 l=1.3e-07 w=2.3e-07
mX_g10_MXNA1 c nck VSS VPW n12 l=1.3e-07 w=1.8e-07
MXN0 pm nmsi net71 VPW n12 l=1.3e-07 w=1.8e-07
MXN1 net71 cn VSS VPW n12 l=1.3e-07 w=1.8e-07
mXI6_MXNOE pm c XI6_n1 VPW n12 l=1.3e-07 w=1.8e-07
mXI6_MXNA1 XI6_n1 m VSS VPW n12 l=1.3e-07 w=1.8e-07
mX_g5_MXNA1 m pm VSS VPW n12 l=1.3e-07 w=3.1e-07
mXI59_MXNOE bm c m VPW n12 l=1.3e-07 w=3.1e-07
mXI7_MXNOE bm cn XI7_n1 VPW n12 l=1.3e-07 w=1.5e-07
mXI7_MXNA1 XI7_n1 s VSS VPW n12 l=1.3e-07 w=1.5e-07
mX_g2_MXNA1 s bm VSS VPW n12 l=1.3e-07 w=3e-07
mX_g1_MXNA1 QN s VSS VPW n12 l=1.3e-07 w=6.9e-07
mX_g9_MXPA1 nmse SE VDD VNW p12 l=1.3e-07 w=2.3e-07
mXI16_MXPA1 XI16_p1 SI VDD VNW p12 l=1.3e-07 w=2.3e-07
mXI16_MXPOEN nmsi nmse XI16_p1 VNW p12 l=1.3e-07 w=2.3e-07
mXI65_MXPOEN nmsi SE nmin VNW p12 l=1.3e-07 w=2.3e-07
mX_g13_MXPA1 nmin D VDD VNW p12 l=1.3e-07 w=2.3e-07
MX_t10 net48 CK VDD VNW p12 l=1.3e-07 w=4.2e-07
MXP0 net48 c cn VNW p12 l=1.3e-07 w=4.2e-07
mX_g14_MXPA1 nck CK VDD VNW p12 l=1.3e-07 w=2.3e-07
mX_g10_MXPA1 c nck VDD VNW p12 l=1.3e-07 w=5.6e-07
MX_t8 net60 c VDD VNW p12 l=1.3e-07 w=3e-07
MXP2 pm nmsi net60 VNW p12 l=1.3e-07 w=3e-07
mXI6_MXPOEN pm cn XI6_p1 VNW p12 l=1.3e-07 w=2.2e-07
mXI6_MXPA1 XI6_p1 m VDD VNW p12 l=1.3e-07 w=2.2e-07
mX_g5_MXPA1 m pm VDD VNW p12 l=1.3e-07 w=3.1e-07
mXI59_MXPOEN bm cn m VNW p12 l=1.3e-07 w=3.6e-07
mXI7_MXPOEN bm c XI7_p1 VNW p12 l=1.3e-07 w=1.5e-07
mXI7_MXPA1 XI7_p1 s VDD VNW p12 l=1.3e-07 w=1.5e-07
mX_g2_MXPA1 s bm VDD VNW p12 l=1.3e-07 w=3e-07
mX_g1_MXPA1 QN s VDD VNW p12 l=1.3e-07 w=8.4e-07
.ends


.SUBCKT SDFFHQNX4MTR QN VDD VNW VPW VSS CK D SE SI
mX_g9_MXNA1 nmse SE VSS VPW n12 l=1.3e-07 w=1.8e-07
mXI16_MXNA1 XI16_n1 SI VSS VPW n12 l=1.3e-07 w=1.8e-07
mXI16_MXNOE nmsi SE XI16_n1 VPW n12 l=1.3e-07 w=1.8e-07
mXI65_MXNOE nmsi nmse nmin VPW n12 l=1.3e-07 w=1.8e-07
mX_g13_MXNA1 nmin D VSS VPW n12 l=1.3e-07 w=1.8e-07
MX_t6 cn CK VSS VPW n12 l=1.3e-07 w=1.8e-07
mX_g14_MXNA1 nck CK VSS VPW n12 l=1.3e-07 w=2.3e-07
mX_g10_MXNA1 c nck VSS VPW n12 l=1.3e-07 w=2e-07
MXN0 pm nmsi net71 VPW n12 l=1.3e-07 w=2.9e-07
MXN2 net71 cn VSS VPW n12 l=1.3e-07 w=2.9e-07
mXI6_MXNOE pm c XI6_n1 VPW n12 l=1.3e-07 w=1.8e-07
mXI6_MXNA1 XI6_n1 m VSS VPW n12 l=1.3e-07 w=1.8e-07
mX_g5_MXNA1 m pm VSS VPW n12 l=1.3e-07 w=3.7e-07
mXI59_MXNOE bm c m VPW n12 l=1.3e-07 w=3.2e-07
mXI7_MXNOE bm cn XI7_n1 VPW n12 l=1.3e-07 w=1.5e-07
mXI7_MXNA1 XI7_n1 s VSS VPW n12 l=1.3e-07 w=1.5e-07
mX_g2_MXNA1 s bm VSS VPW n12 l=1.3e-07 w=5e-07
mX_g1_MXNA1 QN s VSS VPW n12 l=1.3e-07 w=7.1e-07
mX_g1_MXNA1_2 QN s VSS VPW n12 l=1.3e-07 w=7.1e-07
mX_g9_MXPA1 nmse SE VDD VNW p12 l=1.3e-07 w=2.3e-07
mXI16_MXPA1 XI16_p1 SI VDD VNW p12 l=1.3e-07 w=2.3e-07
mXI16_MXPOEN nmsi nmse XI16_p1 VNW p12 l=1.3e-07 w=2.3e-07
mXI65_MXPOEN nmsi SE nmin VNW p12 l=1.3e-07 w=2.3e-07
mX_g13_MXPA1 nmin D VDD VNW p12 l=1.3e-07 w=2.3e-07
MX_t10 net48 CK VDD VNW p12 l=1.3e-07 w=4.2e-07
MXP0 net48 c cn VNW p12 l=1.3e-07 w=4.2e-07
mX_g14_MXPA1 nck CK VDD VNW p12 l=1.3e-07 w=2.3e-07
mX_g10_MXPA1 c nck VDD VNW p12 l=1.3e-07 w=5.7e-07
MX_t8 net60 c VDD VNW p12 l=1.3e-07 w=3.5e-07
MXP3 pm nmsi net60 VNW p12 l=1.3e-07 w=3.5e-07
mXI6_MXPOEN pm cn XI6_p1 VNW p12 l=1.3e-07 w=2.3e-07
mXI6_MXPA1 XI6_p1 m VDD VNW p12 l=1.3e-07 w=2.3e-07
mX_g5_MXPA1 m pm VDD VNW p12 l=1.3e-07 w=6.3e-07
mXI59_MXPOEN bm cn m VNW p12 l=1.3e-07 w=6.3e-07
mXI7_MXPOEN bm c XI7_p1 VNW p12 l=1.3e-07 w=1.5e-07
mXI7_MXPA1 XI7_p1 s VDD VNW p12 l=1.3e-07 w=1.5e-07
mX_g2_MXPA1 s bm VDD VNW p12 l=1.3e-07 w=6.1e-07
mX_g1_MXPA1 QN s VDD VNW p12 l=1.3e-07 w=8.7e-07
mX_g1_MXPA1_2 QN s VDD VNW p12 l=1.3e-07 w=8.7e-07
.ends


.SUBCKT SDFFHQNX8MTR QN VDD VNW VPW VSS CK D SE SI
mX_g9_MXNA1 nmse SE VSS VPW n12 l=1.3e-07 w=1.8e-07
mXI16_MXNA1 XI16_n1 SI VSS VPW n12 l=1.3e-07 w=1.8e-07
mXI16_MXNOE nmsi SE XI16_n1 VPW n12 l=1.3e-07 w=1.8e-07
mXI65_MXNOE nmsi nmse nmin VPW n12 l=1.3e-07 w=3.4e-07
mX_g13_MXNA1 nmin D VSS VPW n12 l=1.3e-07 w=3.4e-07
MX_t6 cn CK VSS VPW n12 l=1.3e-07 w=2.1e-07
mX_g14_MXNA1 nck CK VSS VPW n12 l=1.3e-07 w=2.3e-07
mX_g10_MXNA1 c nck VSS VPW n12 l=1.3e-07 w=3e-07
MXN3 net71 cn VSS VPW n12 l=1.3e-07 w=5.4e-07
MXN0 pm nmsi net71 VPW n12 l=1.3e-07 w=5.4e-07
mXI6_MXNOE pm c XI6_n1 VPW n12 l=1.3e-07 w=1.8e-07
mXI6_MXNA1 XI6_n1 m VSS VPW n12 l=1.3e-07 w=1.8e-07
mX_g5_MXNA1 m pm VSS VPW n12 l=1.3e-07 w=6.6e-07
mXI59_MXNOE bm c m VPW n12 l=1.3e-07 w=6.1e-07
mXI7_MXNOE bm cn XI7_n1 VPW n12 l=1.3e-07 w=1.5e-07
mXI7_MXNA1 XI7_n1 s VSS VPW n12 l=1.3e-07 w=1.5e-07
mX_g2_MXNA1 s bm VSS VPW n12 l=1.3e-07 w=4.8e-07
mX_g2_MXNA1_2 s bm VSS VPW n12 l=1.3e-07 w=4.8e-07
mX_g1_MXNA1 QN s VSS VPW n12 l=1.3e-07 w=7.1e-07
mX_g1_MXNA1_2 QN s VSS VPW n12 l=1.3e-07 w=7.1e-07
mX_g1_MXNA1_3 QN s VSS VPW n12 l=1.3e-07 w=7.1e-07
mX_g1_MXNA1_4 QN s VSS VPW n12 l=1.3e-07 w=7.1e-07
mX_g9_MXPA1 nmse SE VDD VNW p12 l=1.3e-07 w=2.3e-07
mXI16_MXPA1 XI16_p1 SI VDD VNW p12 l=1.3e-07 w=2.3e-07
mXI16_MXPOEN nmsi nmse XI16_p1 VNW p12 l=1.3e-07 w=2.3e-07
mXI65_MXPOEN nmsi SE nmin VNW p12 l=1.3e-07 w=4.2e-07
mX_g13_MXPA1 nmin D VDD VNW p12 l=1.3e-07 w=4.2e-07
MX_t10 net48 CK VDD VNW p12 l=1.3e-07 w=4.8e-07
MXP4 net48 c cn VNW p12 l=1.3e-07 w=4.8e-07
mX_g14_MXPA1 nck CK VDD VNW p12 l=1.3e-07 w=2.3e-07
mX_g10_MXPA1 c nck VDD VNW p12 l=1.3e-07 w=8.3e-07
MX_t8 net60 c VDD VNW p12 l=1.3e-07 w=6.5e-07
MXP5 pm nmsi net60 VNW p12 l=1.3e-07 w=6.5e-07
mXI6_MXPOEN pm cn XI6_p1 VNW p12 l=1.3e-07 w=2.3e-07
mXI6_MXPA1 XI6_p1 m VDD VNW p12 l=1.3e-07 w=2.3e-07
mX_g5_MXPA1 m pm VDD VNW p12 l=1.3e-07 w=6e-07
mX_g5_MXPA1_2 m pm VDD VNW p12 l=1.3e-07 w=6.1e-07
mXI59_MXPOEN bm cn m VNW p12 l=1.3e-07 w=5.6e-07
mXI59_MXPOEN_2 bm cn m VNW p12 l=1.3e-07 w=6.5e-07
mXI7_MXPOEN bm c XI7_p1 VNW p12 l=1.3e-07 w=1.5e-07
mXI7_MXPA1 XI7_p1 s VDD VNW p12 l=1.3e-07 w=1.5e-07
mX_g2_MXPA1 s bm VDD VNW p12 l=1.3e-07 w=6e-07
mX_g2_MXPA1_2 s bm VDD VNW p12 l=1.3e-07 w=5.7e-07
mX_g1_MXPA1 QN s VDD VNW p12 l=1.3e-07 w=8.7e-07
mX_g1_MXPA1_2 QN s VDD VNW p12 l=1.3e-07 w=8.7e-07
mX_g1_MXPA1_3 QN s VDD VNW p12 l=1.3e-07 w=8.7e-07
mX_g1_MXPA1_4 QN s VDD VNW p12 l=1.3e-07 w=8.7e-07
.ends


.SUBCKT SDFFHQX1MTR Q VDD VNW VPW VSS CK D SE SI
mX_g14_MXNA1 nck CK VSS VPW n12 l=1.3e-07 w=2.3e-07
MXN0 VSS CK cn VPW n12 l=1.3e-07 w=1.8e-07
mX_g9_MXNA1 nmse SE VSS VPW n12 l=1.3e-07 w=1.8e-07
mX_g13_MXNA1 nmin D VSS VPW n12 l=1.3e-07 w=2.1e-07
mXI65_MXNOE nmsi nmse nmin VPW n12 l=1.3e-07 w=2.1e-07
mXI16_MXNOE nmsi SE XI16_n1 VPW n12 l=1.3e-07 w=1.8e-07
mXI16_MXNA1 XI16_n1 SI VSS VPW n12 l=1.3e-07 w=1.8e-07
mX_g10_MXNA1 c nck VSS VPW n12 l=1.3e-07 w=2.2e-07
MX_t3 pm nmsi net54 VPW n12 l=1.3e-07 w=3.3e-07
MXN1 net54 cn VSS VPW n12 l=1.3e-07 w=3.3e-07
mXI15_MXNA1 XI15_n1 m VSS VPW n12 l=1.3e-07 w=1.8e-07
mXI15_MXNOE pm c XI15_n1 VPW n12 l=1.3e-07 w=1.8e-07
mX_g5_MXNA1 m pm VSS VPW n12 l=1.3e-07 w=4.2e-07
mXI59_MXNOE bm c m VPW n12 l=1.3e-07 w=3.7e-07
mXI14_MXNOE bm cn XI14_n1 VPW n12 l=1.3e-07 w=1.5e-07
mXI14_MXNA1 XI14_n1 s VSS VPW n12 l=1.3e-07 w=1.5e-07
mX_g2_MXNA1 s bm VSS VPW n12 l=1.3e-07 w=1.5e-07
mX_g1_MXNA1 Q bm VSS VPW n12 l=1.3e-07 w=3.6e-07
mX_g14_MXPA1 nck CK VDD VNW p12 l=1.3e-07 w=2.3e-07
MXP1 net065 CK VDD VNW p12 l=1.3e-07 w=4.2e-07
MXP0 net065 c cn VNW p12 l=1.3e-07 w=4.2e-07
mX_g9_MXPA1 nmse SE VDD VNW p12 l=1.3e-07 w=2.3e-07
mX_g13_MXPA1 nmin D VDD VNW p12 l=1.3e-07 w=6e-07
mXI65_MXPOEN nmsi SE nmin VNW p12 l=1.3e-07 w=2.6e-07
mXI16_MXPOEN nmsi nmse XI16_p1 VNW p12 l=1.3e-07 w=2.3e-07
mXI16_MXPA1 XI16_p1 SI VDD VNW p12 l=1.3e-07 w=2.3e-07
mX_g10_MXPA1 c nck VDD VNW p12 l=1.3e-07 w=6.1e-07
MX_t8 net71 c VDD VNW p12 l=1.3e-07 w=4e-07
MXP2 pm nmsi net71 VNW p12 l=1.3e-07 w=4e-07
mXI15_MXPOEN pm cn XI15_p1 VNW p12 l=1.3e-07 w=2.3e-07
mXI15_MXPA1 XI15_p1 m VDD VNW p12 l=1.3e-07 w=2.3e-07
mX_g5_MXPA1 m pm VDD VNW p12 l=1.3e-07 w=7.3e-07
mXI59_MXPOEN bm cn m VNW p12 l=1.3e-07 w=7.3e-07
mXI14_MXPOEN bm c XI14_p1 VNW p12 l=1.3e-07 w=1.5e-07
mXI14_MXPA1 XI14_p1 s VDD VNW p12 l=1.3e-07 w=1.5e-07
mX_g1_MXPA1 Q bm VDD VNW p12 l=1.3e-07 w=6.2e-07
mX_g2_MXPA1 s bm VDD VNW p12 l=1.3e-07 w=1.5e-07
.ends


.SUBCKT SDFFHQX2MTR Q VDD VNW VPW VSS CK D SE SI
mX_g14_MXNA1 nck CK VSS VPW n12 l=1.3e-07 w=2.3e-07
MXN0 VSS CK cn VPW n12 l=1.3e-07 w=1.9e-07
mX_g9_MXNA1 nmse SE VSS VPW n12 l=1.3e-07 w=1.8e-07
mX_g13_MXNA1 nmin D VSS VPW n12 l=1.3e-07 w=3.1e-07
mXI65_MXNOE nmsi nmse nmin VPW n12 l=1.3e-07 w=3.1e-07
mXI16_MXNOE nmsi SE XI16_n1 VPW n12 l=1.3e-07 w=1.8e-07
mXI16_MXNA1 XI16_n1 SI VSS VPW n12 l=1.3e-07 w=1.8e-07
mX_g10_MXNA1 c nck VSS VPW n12 l=1.3e-07 w=2.7e-07
MX_t3 pm nmsi net54 VPW n12 l=1.3e-07 w=4.8e-07
MXN2 net54 cn VSS VPW n12 l=1.3e-07 w=4.8e-07
mXI15_MXNA1 XI15_n1 m VSS VPW n12 l=1.3e-07 w=1.8e-07
mXI15_MXNOE pm c XI15_n1 VPW n12 l=1.3e-07 w=1.8e-07
mX_g5_MXNA1 m pm VSS VPW n12 l=1.3e-07 w=6e-07
mXI59_MXNOE bm c m VPW n12 l=1.3e-07 w=5.4e-07
mXI14_MXNOE bm cn XI14_n1 VPW n12 l=1.3e-07 w=1.5e-07
mXI14_MXNA1 XI14_n1 s VSS VPW n12 l=1.3e-07 w=1.5e-07
mX_g2_MXNA1 s bm VSS VPW n12 l=1.3e-07 w=1.5e-07
mX_g1_MXNA1 Q bm VSS VPW n12 l=1.3e-07 w=6.8e-07
mX_g14_MXPA1 nck CK VDD VNW p12 l=1.3e-07 w=2.3e-07
MXP1 net065 CK VDD VNW p12 l=1.3e-07 w=4.4e-07
MXP3 net065 c cn VNW p12 l=1.3e-07 w=4.4e-07
mX_g9_MXPA1 nmse SE VDD VNW p12 l=1.3e-07 w=2.3e-07
mX_g13_MXPA1 nmin D VDD VNW p12 l=1.3e-07 w=3.8e-07
mXI65_MXPOEN nmsi SE nmin VNW p12 l=1.3e-07 w=3.8e-07
mXI16_MXPOEN nmsi nmse XI16_p1 VNW p12 l=1.3e-07 w=2.3e-07
mXI16_MXPA1 XI16_p1 SI VDD VNW p12 l=1.3e-07 w=2.3e-07
mX_g10_MXPA1 c nck VDD VNW p12 l=1.3e-07 w=7.6e-07
MX_t8 net71 c VDD VNW p12 l=1.3e-07 w=5.9e-07
MXP4 pm nmsi net71 VNW p12 l=1.3e-07 w=5.9e-07
mXI15_MXPOEN pm cn XI15_p1 VNW p12 l=1.3e-07 w=2.2e-07
mXI15_MXPA1 XI15_p1 m VDD VNW p12 l=1.3e-07 w=2.2e-07
mX_g5_MXPA1 m pm VDD VNW p12 l=1.3e-07 w=5.4e-07
mX_g5_MXPA1_2 m pm VDD VNW p12 l=1.3e-07 w=5.4e-07
mXI59_MXPOEN bm cn m VNW p12 l=1.3e-07 w=5.4e-07
mXI59_MXPOEN_2 bm cn m VNW p12 l=1.3e-07 w=5.4e-07
mXI14_MXPOEN bm c XI14_p1 VNW p12 l=1.3e-07 w=1.5e-07
mXI14_MXPA1 XI14_p1 s VDD VNW p12 l=1.3e-07 w=1.5e-07
mX_g1_MXPA1 Q bm VDD VNW p12 l=1.3e-07 w=4e-07
mX_g2_MXPA1 s bm VDD VNW p12 l=1.3e-07 w=1.5e-07
mX_g1_MXPA1_2 Q bm VDD VNW p12 l=1.3e-07 w=4e-07
.ends


.SUBCKT SDFFHQX4MTR Q VDD VNW VPW VSS CK D SE SI
mX_g14_MXNA1 nck CK VSS VPW n12 l=1.3e-07 w=3e-07
MXN0 VSS CK cn VPW n12 l=1.3e-07 w=3.2e-07
mX_g9_MXNA1 nmse SE VSS VPW n12 l=1.3e-07 w=1.8e-07
mX_g13_MXNA1 nmin D VSS VPW n12 l=1.3e-07 w=5.5e-07
mXI65_MXNOE nmsi nmse nmin VPW n12 l=1.3e-07 w=5.5e-07
mXI16_MXNOE nmsi SE XI16_n1 VPW n12 l=1.3e-07 w=2.8e-07
mXI16_MXNA1 XI16_n1 SI VSS VPW n12 l=1.3e-07 w=2.8e-07
mX_g10_MXNA1 c nck VSS VPW n12 l=1.3e-07 w=4.4e-07
MX_t3 pm nmsi net54 VPW n12 l=1.3e-07 w=6.9e-07
MXN3 net54 cn VSS VPW n12 l=1.3e-07 w=6.9e-07
mXI15_MXNA1 XI15_n1 m VSS VPW n12 l=1.3e-07 w=1.8e-07
mXI15_MXNOE pm c XI15_n1 VPW n12 l=1.3e-07 w=1.8e-07
mX_g5_MXNA1 m pm VSS VPW n12 l=1.3e-07 w=7.2e-07
mXI59_MXNOE bm c m VPW n12 l=1.3e-07 w=7.2e-07
mXI14_MXNOE bm cn XI14_n1 VPW n12 l=1.3e-07 w=1.5e-07
mXI14_MXNA1 XI14_n1 s VSS VPW n12 l=1.3e-07 w=1.5e-07
mX_g2_MXNA1 s bm VSS VPW n12 l=1.3e-07 w=1.5e-07
mX_g1_MXNA1 Q bm VSS VPW n12 l=1.3e-07 w=6.9e-07
mX_g1_MXNA1_2 Q bm VSS VPW n12 l=1.3e-07 w=6.9e-07
mX_g14_MXPA1 nck CK VDD VNW p12 l=1.3e-07 w=3e-07
MXP1 net065 CK VDD VNW p12 l=1.3e-07 w=7.4e-07
MXP5 net065 c cn VNW p12 l=1.3e-07 w=7.4e-07
mX_g9_MXPA1 nmse SE VDD VNW p12 l=1.3e-07 w=2.3e-07
mX_g13_MXPA1 nmin D VDD VNW p12 l=1.3e-07 w=5.5e-07
mXI65_MXPOEN nmsi SE nmin VNW p12 l=1.3e-07 w=6.7e-07
mXI16_MXPOEN nmsi nmse XI16_p1 VNW p12 l=1.3e-07 w=3.4e-07
mXI16_MXPA1 XI16_p1 SI VDD VNW p12 l=1.3e-07 w=3.4e-07
mX_g10_MXPA1 c nck VDD VNW p12 l=1.3e-07 w=6.3e-07
mX_g10_MXPA1_2 c nck VDD VNW p12 l=1.3e-07 w=6.3e-07
MX_t8 net71 c VDD VNW p12 l=1.3e-07 w=8e-07
MXP6 pm nmsi net71 VNW p12 l=1.3e-07 w=8e-07
mXI15_MXPOEN pm cn XI15_p1 VNW p12 l=1.3e-07 w=2.2e-07
mXI15_MXPA1 XI15_p1 m VDD VNW p12 l=1.3e-07 w=2.2e-07
mX_g5_MXPA1 m pm VDD VNW p12 l=1.3e-07 w=8e-07
mX_g5_MXPA1_2 m pm VDD VNW p12 l=1.3e-07 w=8e-07
mXI59_MXPOEN bm cn m VNW p12 l=1.3e-07 w=8.1e-07
mXI59_MXPOEN_2 bm cn m VNW p12 l=1.3e-07 w=8.1e-07
mXI14_MXPOEN bm c XI14_p1 VNW p12 l=1.3e-07 w=1.5e-07
mXI14_MXPA1 XI14_p1 s VDD VNW p12 l=1.3e-07 w=1.5e-07
mX_g2_MXPA1 s bm VDD VNW p12 l=1.3e-07 w=1.5e-07
mX_g1_MXPA1 Q bm VDD VNW p12 l=1.3e-07 w=8.4e-07
mX_g1_MXPA1_2 Q bm VDD VNW p12 l=1.3e-07 w=8.4e-07
.ends


.SUBCKT SDFFHQX8MTR Q VDD VNW VPW VSS CK D SE SI
mX_g14_MXNA1 nck CK VSS VPW n12 l=1.3e-07 w=5.4e-07
MXN0 VSS CK cn VPW n12 l=1.3e-07 w=5.8e-07
mX_g9_MXNA1 nmse SE VSS VPW n12 l=1.3e-07 w=1.8e-07
mX_g13_MXNA1 nmin D VSS VPW n12 l=1.3e-07 w=5.5e-07
mXI65_MXNOE nmsi nmse nmin VPW n12 l=1.3e-07 w=5.5e-07
mXI16_MXNOE nmsi SE XI16_n1 VPW n12 l=1.3e-07 w=5.3e-07
mXI16_MXNA1 XI16_n1 SI VSS VPW n12 l=1.3e-07 w=5.3e-07
mX_g10_MXNA1 c nck VSS VPW n12 l=1.3e-07 w=4.4e-07
MX_t3 pm nmsi net54 VPW n12 l=1.3e-07 w=6.9e-07
MXN3 net54 cn VSS VPW n12 l=1.3e-07 w=6.9e-07
mXI15_MXNA1 XI15_n1 m VSS VPW n12 l=1.3e-07 w=1.9e-07
mXI15_MXNOE pm c XI15_n1 VPW n12 l=1.3e-07 w=1.9e-07
mX_g5_MXNA1 m pm VSS VPW n12 l=1.3e-07 w=7.2e-07
mXI59_MXNOE bm c m VPW n12 l=1.3e-07 w=7.2e-07
mXI14_MXNOE bm cn XI14_n1 VPW n12 l=1.3e-07 w=1.5e-07
mXI14_MXNA1 XI14_n1 s VSS VPW n12 l=1.3e-07 w=1.5e-07
mX_g2_MXNA1 s bm VSS VPW n12 l=1.3e-07 w=1.5e-07
mX_g1_MXNA1 Q bm VSS VPW n12 l=1.3e-07 w=6.9e-07
mX_g1_MXNA1_2 Q bm VSS VPW n12 l=1.3e-07 w=6.9e-07
mX_g1_MXNA1_3 Q bm VSS VPW n12 l=1.3e-07 w=6.9e-07
mX_g1_MXNA1_4 Q bm VSS VPW n12 l=1.3e-07 w=6.9e-07
mX_g14_MXPA1 nck CK VDD VNW p12 l=1.3e-07 w=5.4e-07
MXP1 net065 CK VDD VNW p12 l=1.3e-07 w=7.4e-07
MXP5 net065 c cn VNW p12 l=1.3e-07 w=7.4e-07
mX_g9_MXPA1 nmse SE VDD VNW p12 l=1.3e-07 w=2.3e-07
mX_g13_MXPA1 nmin D VDD VNW p12 l=1.3e-07 w=5.5e-07
mXI65_MXPOEN nmsi SE nmin VNW p12 l=1.3e-07 w=6.7e-07
mXI16_MXPOEN nmsi nmse XI16_p1 VNW p12 l=1.3e-07 w=5e-07
mXI16_MXPA1 XI16_p1 SI VDD VNW p12 l=1.3e-07 w=5e-07
mX_g10_MXPA1 c nck VDD VNW p12 l=1.3e-07 w=8.3e-07
mX_g10_MXPA1_2 c nck VDD VNW p12 l=1.3e-07 w=8.3e-07
MX_t8 net71 c VDD VNW p12 l=1.3e-07 w=8e-07
MXP6 pm nmsi net71 VNW p12 l=1.3e-07 w=8e-07
mXI15_MXPOEN pm cn XI15_p1 VNW p12 l=1.3e-07 w=2.6e-07
mXI15_MXPA1 XI15_p1 m VDD VNW p12 l=1.3e-07 w=2.6e-07
mX_g5_MXPA1 m pm VDD VNW p12 l=1.3e-07 w=8e-07
mX_g5_MXPA1_2 m pm VDD VNW p12 l=1.3e-07 w=8e-07
mXI59_MXPOEN bm cn m VNW p12 l=1.3e-07 w=8.1e-07
mXI59_MXPOEN_2 bm cn m VNW p12 l=1.3e-07 w=8.1e-07
mXI14_MXPOEN bm c XI14_p1 VNW p12 l=1.3e-07 w=1.5e-07
mXI14_MXPA1 XI14_p1 s VDD VNW p12 l=1.3e-07 w=1.5e-07
mX_g2_MXPA1 s bm VDD VNW p12 l=1.3e-07 w=1.5e-07
mX_g1_MXPA1 Q bm VDD VNW p12 l=1.3e-07 w=8.4e-07
mX_g1_MXPA1_2 Q bm VDD VNW p12 l=1.3e-07 w=8.4e-07
mX_g1_MXPA1_3 Q bm VDD VNW p12 l=1.3e-07 w=8.4e-07
mX_g1_MXPA1_4 Q bm VDD VNW p12 l=1.3e-07 w=8.4e-07
.ends


.SUBCKT SDFFHX1MTR Q QN VDD VNW VPW VSS CK D SE SI
mX_g14_MXNA1 nck CK VSS VPW n12 l=1.3e-07 w=2.3e-07
MX_t6 cn CK VSS VPW n12 l=1.3e-07 w=1.8e-07
mX_g9_MXNA1 nmse SE VSS VPW n12 l=1.3e-07 w=1.8e-07
mX_g13_MXNA1 nmin D VSS VPW n12 l=1.3e-07 w=2.3e-07
mXI62_MXNOE nmsi nmse nmin VPW n12 l=1.3e-07 w=2.3e-07
MX_t20 nmsi SI net0107 VPW n12 l=1.3e-07 w=1.8e-07
MXN5 net0107 SE VSS VPW n12 l=1.3e-07 w=1.8e-07
mX_g10_MXNA1 c nck VSS VPW n12 l=1.3e-07 w=2.3e-07
MX_t3 pm nmsi net104 VPW n12 l=1.3e-07 w=3.6e-07
MXN6 net104 cn VSS VPW n12 l=1.3e-07 w=3.6e-07
mXI60_MXNOE pm c XI60_n1 VPW n12 l=1.3e-07 w=1.8e-07
mXI60_MXNA1 XI60_n1 m VSS VPW n12 l=1.3e-07 w=1.8e-07
mX_g6_MXNA1 m pm VSS VPW n12 l=1.3e-07 w=4.5e-07
mXI59_MXNOE bm c m VPW n12 l=1.3e-07 w=4e-07
mXI14_MXNOE bm cn XI14_n1 VPW n12 l=1.3e-07 w=1.5e-07
mXI14_MXNA1 XI14_n1 s VSS VPW n12 l=1.3e-07 w=1.5e-07
mX_g2_MXNA1 s bm VSS VPW n12 l=1.3e-07 w=1.8e-07
mX_g1_MXNA1 Q bm VSS VPW n12 l=1.3e-07 w=3.6e-07
mX_g3_MXNA1 QN s VSS VPW n12 l=1.3e-07 w=1.8e-07
mX_g14_MXPA1 nck CK VDD VNW p12 l=1.3e-07 w=2.3e-07
MX_t10 net079 CK VDD VNW p12 l=1.3e-07 w=4.1e-07
MXP5 net079 c cn VNW p12 l=1.3e-07 w=4.1e-07
mX_g9_MXPA1 nmse SE VDD VNW p12 l=1.3e-07 w=2.3e-07
mX_g13_MXPA1 nmin D VDD VNW p12 l=1.3e-07 w=2.8e-07
mXI62_MXPOEN nmsi SE nmin VNW p12 l=1.3e-07 w=2.8e-07
MX_t22 net76 nmse VDD VNW p12 l=1.3e-07 w=2.3e-07
MXP11 nmsi SI net76 VNW p12 l=1.3e-07 w=2.3e-07
mX_g10_MXPA1 c nck VDD VNW p12 l=1.3e-07 w=6.3e-07
MX_t8 net087 c VDD VNW p12 l=1.3e-07 w=4.4e-07
MXP10 pm nmsi net087 VNW p12 l=1.3e-07 w=4.4e-07
mXI60_MXPOEN pm cn XI60_p1 VNW p12 l=1.3e-07 w=2.3e-07
mXI60_MXPA1 XI60_p1 m VDD VNW p12 l=1.3e-07 w=2.3e-07
mX_g6_MXPA1 m pm VDD VNW p12 l=1.3e-07 w=7.9e-07
mXI59_MXPOEN bm cn m VNW p12 l=1.3e-07 w=7.9e-07
mXI14_MXPOEN bm c XI14_p1 VNW p12 l=1.3e-07 w=1.5e-07
mXI14_MXPA1 XI14_p1 s VDD VNW p12 l=1.3e-07 w=1.5e-07
mX_g1_MXPA1 Q bm VDD VNW p12 l=1.3e-07 w=3e-07 nf=2
mX_g2_MXPA1 s bm VDD VNW p12 l=1.3e-07 w=2.3e-07
*mX_g1_MXPA1_2 Q bm VDD VNW p12 l=1.3e-07 w=3.2e-07
mX_g3_MXPA1 QN s VDD VNW p12 l=1.3e-07 w=3.6e-07
.ends


.SUBCKT SDFFHX2MTR Q QN VDD VNW VPW VSS CK D SE SI
mX_g14_MXNA1 nck CK VSS VPW n12 l=1.3e-07 w=2.3e-07
MX_t6 cn CK VSS VPW n12 l=1.3e-07 w=2e-07
mX_g9_MXNA1 nmse SE VSS VPW n12 l=1.3e-07 w=1.8e-07
mX_g13_MXNA1 nmin D VSS VPW n12 l=1.3e-07 w=3.2e-07
mXI62_MXNOE nmsi nmse nmin VPW n12 l=1.3e-07 w=3.2e-07
MX_t20 nmsi SI net0107 VPW n12 l=1.3e-07 w=1.8e-07
MXN5 net0107 SE VSS VPW n12 l=1.3e-07 w=1.8e-07
mX_g10_MXNA1 c nck VSS VPW n12 l=1.3e-07 w=2.8e-07
MX_t3 pm nmsi net104 VPW n12 l=1.3e-07 w=5.1e-07
MXN7 net104 cn VSS VPW n12 l=1.3e-07 w=5.1e-07
mXI60_MXNOE pm c XI60_n1 VPW n12 l=1.3e-07 w=1.8e-07
mXI60_MXNA1 XI60_n1 m VSS VPW n12 l=1.3e-07 w=1.8e-07
mX_g6_MXNA1 m pm VSS VPW n12 l=1.3e-07 w=6.3e-07
mXI59_MXNOE bm c m VPW n12 l=1.3e-07 w=5.7e-07
mXI14_MXNOE bm cn XI14_n1 VPW n12 l=1.3e-07 w=1.5e-07
mXI14_MXNA1 XI14_n1 s VSS VPW n12 l=1.3e-07 w=1.5e-07
mX_g2_MXNA1 s bm VSS VPW n12 l=1.3e-07 w=1.8e-07
mX_g1_MXNA1 Q bm VSS VPW n12 l=1.3e-07 w=7.1e-07
mX_g3_MXNA1 QN s VSS VPW n12 l=1.3e-07 w=1.8e-07
mX_g14_MXPA1 nck CK VDD VNW p12 l=1.3e-07 w=2.3e-07
MX_t10 net079 CK VDD VNW p12 l=1.3e-07 w=4.6e-07
MXP13 net079 c cn VNW p12 l=1.3e-07 w=4.6e-07
mX_g9_MXPA1 nmse SE VDD VNW p12 l=1.3e-07 w=2.3e-07
mX_g13_MXPA1 nmin D VDD VNW p12 l=1.3e-07 w=3.9e-07
mXI62_MXPOEN nmsi SE nmin VNW p12 l=1.3e-07 w=3.9e-07
MX_t22 net76 nmse VDD VNW p12 l=1.3e-07 w=2.3e-07
MXP11 nmsi SI net76 VNW p12 l=1.3e-07 w=2.3e-07
mX_g10_MXPA1 c nck VDD VNW p12 l=1.3e-07 w=8e-07
MX_t8 net087 c VDD VNW p12 l=1.3e-07 w=6.2e-07
MXP12 pm nmsi net087 VNW p12 l=1.3e-07 w=6.2e-07
mXI60_MXPOEN pm cn XI60_p1 VNW p12 l=1.3e-07 w=2.3e-07
mXI60_MXPA1 XI60_p1 m VDD VNW p12 l=1.3e-07 w=2.3e-07
mX_g6_MXPA1 m pm VDD VNW p12 l=1.3e-07 w=5.5e-07
mX_g6_MXPA1_2 m pm VDD VNW p12 l=1.3e-07 w=6e-07
mXI59_MXPOEN bm cn m VNW p12 l=1.3e-07 w=5.4e-07
mXI59_MXPOEN_2 bm cn m VNW p12 l=1.3e-07 w=6.1e-07
mXI14_MXPOEN bm c XI14_p1 VNW p12 l=1.3e-07 w=1.5e-07
mXI14_MXPA1 XI14_p1 s VDD VNW p12 l=1.3e-07 w=1.5e-07
mX_g1_MXPA1 Q bm VDD VNW p12 l=1.3e-07 w=4e-07
mX_g2_MXPA1 s bm VDD VNW p12 l=1.3e-07 w=2.3e-07
mX_g1_MXPA1_2 Q bm VDD VNW p12 l=1.3e-07 w=4e-07
mX_g3_MXPA1 QN s VDD VNW p12 l=1.3e-07 w=2.3e-07
.ends


.SUBCKT SDFFHX4MTR Q QN VDD VNW VPW VSS CK D SE SI
mX_g14_MXNA1 nck CK VSS VPW n12 l=1.3e-07 w=3e-07
MX_t6 cn CK VSS VPW n12 l=1.3e-07 w=3.3e-07
mX_g9_MXNA1 nmse SE VSS VPW n12 l=1.3e-07 w=1.8e-07
mX_g13_MXNA1 nmin D VSS VPW n12 l=1.3e-07 w=5.7e-07
mXI62_MXNOE nmsi nmse nmin VPW n12 l=1.3e-07 w=5.4e-07
MX_t20 nmsi SI net0107 VPW n12 l=1.3e-07 w=2.9e-07
MXN8 net0107 SE VSS VPW n12 l=1.3e-07 w=2.9e-07
mX_g10_MXNA1 c nck VSS VPW n12 l=1.3e-07 w=4.2e-07
MX_t3 pm nmsi net104 VPW n12 l=1.3e-07 w=7e-07
MXN9 net104 cn VSS VPW n12 l=1.3e-07 w=7e-07
mXI60_MXNOE pm c XI60_n1 VPW n12 l=1.3e-07 w=1.8e-07
mXI60_MXNA1 XI60_n1 m VSS VPW n12 l=1.3e-07 w=1.8e-07
mX_g6_MXNA1 m pm VSS VPW n12 l=1.3e-07 w=7.4e-07
mXI59_MXNOE bm c m VPW n12 l=1.3e-07 w=7.3e-07
mXI14_MXNOE bm cn XI14_n1 VPW n12 l=1.3e-07 w=1.5e-07
mXI14_MXNA1 XI14_n1 s VSS VPW n12 l=1.3e-07 w=1.5e-07
mX_g2_MXNA1 s bm VSS VPW n12 l=1.3e-07 w=1.8e-07
mX_g1_MXNA1 Q bm VSS VPW n12 l=1.3e-07 w=7.1e-07
mX_g1_MXNA1_2 Q bm VSS VPW n12 l=1.3e-07 w=7.1e-07
mX_g3_MXNA1 QN s VSS VPW n12 l=1.3e-07 w=1.8e-07
mX_g14_MXPA1 nck CK VDD VNW p12 l=1.3e-07 w=3e-07
MX_t10 net079 CK VDD VNW p12 l=1.3e-07 w=6.4e-07
MXP13 net079 c cn VNW p12 l=1.3e-07 w=6.4e-07
mX_g9_MXPA1 nmse SE VDD VNW p12 l=1.3e-07 w=2.3e-07
mX_g13_MXPA1 nmin D VDD VNW p12 l=1.3e-07 w=6.5e-07
mXI62_MXPOEN nmsi SE nmin VNW p12 l=1.3e-07 w=7e-07
MX_t22 net76 nmse VDD VNW p12 l=1.3e-07 w=3.5e-07
MXP14 nmsi SI net76 VNW p12 l=1.3e-07 w=3.5e-07
mX_g10_MXPA1 c nck VDD VNW p12 l=1.3e-07 w=8.7e-07
MX_t8 net087 c VDD VNW p12 l=1.3e-07 w=8.7e-07
MXP15 pm nmsi net087 VNW p12 l=1.3e-07 w=8.7e-07
mXI60_MXPOEN pm cn XI60_p1 VNW p12 l=1.3e-07 w=2.3e-07
mXI60_MXPA1 XI60_p1 m VDD VNW p12 l=1.3e-07 w=2.3e-07
mX_g6_MXPA1 m pm VDD VNW p12 l=1.3e-07 w=7.3e-07
mX_g6_MXPA1_2 m pm VDD VNW p12 l=1.3e-07 w=7.3e-07
mXI59_MXPOEN bm cn m VNW p12 l=1.3e-07 w=5.4e-07
mXI59_MXPOEN_2 bm cn m VNW p12 l=1.3e-07 w=8.2e-07
mXI14_MXPOEN bm c XI14_p1 VNW p12 l=1.3e-07 w=1.5e-07
mXI14_MXPA1 XI14_p1 s VDD VNW p12 l=1.3e-07 w=1.5e-07
mX_g2_MXPA1 s bm VDD VNW p12 l=1.3e-07 w=2.3e-07
mX_g1_MXPA1 Q bm VDD VNW p12 l=1.3e-07 w=8.7e-07
mX_g1_MXPA1_2 Q bm VDD VNW p12 l=1.3e-07 w=8.7e-07
mX_g3_MXPA1 QN s VDD VNW p12 l=1.3e-07 w=2.3e-07
.ends


.SUBCKT SDFFHX8MTR Q QN VDD VNW VPW VSS CK D SE SI
mX_g14_MXNA1 nck CK VSS VPW n12 l=1.3e-07 w=3e-07
MX_t6 cn CK VSS VPW n12 l=1.3e-07 w=3.3e-07
mX_g9_MXNA1 nmse SE VSS VPW n12 l=1.3e-07 w=1.8e-07
mX_g13_MXNA1 nmin D VSS VPW n12 l=1.3e-07 w=5.7e-07
mXI62_MXNOE nmsi nmse nmin VPW n12 l=1.3e-07 w=5.4e-07
MX_t20 nmsi SI net0107 VPW n12 l=1.3e-07 w=2.9e-07
MXN8 net0107 SE VSS VPW n12 l=1.3e-07 w=2.9e-07
mX_g10_MXNA1 c nck VSS VPW n12 l=1.3e-07 w=4.2e-07
MX_t3 pm nmsi net104 VPW n12 l=1.3e-07 w=7e-07
MXN9 net104 cn VSS VPW n12 l=1.3e-07 w=7e-07
mXI60_MXNOE pm c XI60_n1 VPW n12 l=1.3e-07 w=1.8e-07
mXI60_MXNA1 XI60_n1 m VSS VPW n12 l=1.3e-07 w=1.8e-07
mX_g6_MXNA1 m pm VSS VPW n12 l=1.3e-07 w=7.4e-07
mXI59_MXNOE bm c m VPW n12 l=1.3e-07 w=7.3e-07
mXI14_MXNOE bm cn XI14_n1 VPW n12 l=1.3e-07 w=1.5e-07
mXI14_MXNA1 XI14_n1 s VSS VPW n12 l=1.3e-07 w=1.5e-07
mX_g2_MXNA1 s bm VSS VPW n12 l=1.3e-07 w=1.8e-07
mX_g1_MXNA1 Q bm VSS VPW n12 l=1.3e-07 w=7.1e-07
mX_g1_MXNA1_2 Q bm VSS VPW n12 l=1.3e-07 w=7.1e-07
mX_g1_MXNA1_3 Q bm VSS VPW n12 l=1.3e-07 w=7.1e-07
mX_g1_MXNA1_4 Q bm VSS VPW n12 l=1.3e-07 w=7.1e-07
mX_g3_MXNA1 QN s VSS VPW n12 l=1.3e-07 w=1.8e-07
mX_g14_MXPA1 nck CK VDD VNW p12 l=1.3e-07 w=3e-07
MX_t10 net079 CK VDD VNW p12 l=1.3e-07 w=6.4e-07
MXP13 net079 c cn VNW p12 l=1.3e-07 w=6.4e-07
mX_g9_MXPA1 nmse SE VDD VNW p12 l=1.3e-07 w=2.3e-07
mX_g13_MXPA1 nmin D VDD VNW p12 l=1.3e-07 w=6.5e-07
mXI62_MXPOEN nmsi SE nmin VNW p12 l=1.3e-07 w=7e-07
MX_t22 net76 nmse VDD VNW p12 l=1.3e-07 w=3.5e-07
MXP14 nmsi SI net76 VNW p12 l=1.3e-07 w=3.5e-07
mX_g10_MXPA1 c nck VDD VNW p12 l=1.3e-07 w=8.7e-07
MX_t8 net087 c VDD VNW p12 l=1.3e-07 w=8.7e-07
MXP15 pm nmsi net087 VNW p12 l=1.3e-07 w=8.7e-07
mXI60_MXPOEN pm cn XI60_p1 VNW p12 l=1.3e-07 w=2.3e-07
mXI60_MXPA1 XI60_p1 m VDD VNW p12 l=1.3e-07 w=2.3e-07
mX_g6_MXPA1 m pm VDD VNW p12 l=1.3e-07 w=7.3e-07
mX_g6_MXPA1_2 m pm VDD VNW p12 l=1.3e-07 w=7.3e-07
mXI59_MXPOEN bm cn m VNW p12 l=1.3e-07 w=5.4e-07
mXI59_MXPOEN_2 bm cn m VNW p12 l=1.3e-07 w=8.2e-07
mXI14_MXPOEN bm c XI14_p1 VNW p12 l=1.3e-07 w=1.5e-07
mXI14_MXPA1 XI14_p1 s VDD VNW p12 l=1.3e-07 w=1.5e-07
mX_g2_MXPA1 s bm VDD VNW p12 l=1.3e-07 w=2.3e-07
mX_g1_MXPA1 Q bm VDD VNW p12 l=1.3e-07 w=8.7e-07
mX_g1_MXPA1_2 Q bm VDD VNW p12 l=1.3e-07 w=8.7e-07
mX_g1_MXPA1_3 Q bm VDD VNW p12 l=1.3e-07 w=8.7e-07
mX_g1_MXPA1_4 Q bm VDD VNW p12 l=1.3e-07 w=8.7e-07
mX_g3_MXPA1 QN s VDD VNW p12 l=1.3e-07 w=2.3e-07
.ends


.SUBCKT SDFFNHX1MTR Q QN VDD VNW VPW VSS CKN D SE SI
mX_g14_MXNA1 net185 CKN VSS VPW n12 l=1.3e-07 w=2.3e-07
MX_t6 c CKN VSS VPW n12 l=1.3e-07 w=1.8e-07
mX_g9_MXNA1 nmse SE VSS VPW n12 l=1.3e-07 w=1.8e-07
mX_g13_MXNA1 nmin D VSS VPW n12 l=1.3e-07 w=2.2e-07
mXI65_MXNOE nmsi nmse nmin VPW n12 l=1.3e-07 w=1.8e-07
MXN3 nmsi SI n1 VPW n12 l=1.3e-07 w=1.8e-07
MXN4 n1 SE VSS VPW n12 l=1.3e-07 w=1.8e-07
mX_g10_MXNA1 cn net185 VSS VPW n12 l=1.3e-07 w=2.4e-07
MX_t3 pm nmsi net58 VPW n12 l=1.3e-07 w=4.3e-07
MXN5 net58 cn VSS VPW n12 l=1.3e-07 w=4.3e-07
mXI7_MXNOE pm c XI7_n1 VPW n12 l=1.3e-07 w=1.8e-07
mXI7_MXNA1 XI7_n1 m VSS VPW n12 l=1.3e-07 w=1.8e-07
mX_g5_MXNA1 m pm VSS VPW n12 l=1.3e-07 w=4.5e-07
mXI59_MXNOE nm c m VPW n12 l=1.3e-07 w=4e-07
mXI8_MXNOE nm cn XI8_n1 VPW n12 l=1.3e-07 w=1.8e-07
mXI8_MXNA1 XI8_n1 s VSS VPW n12 l=1.3e-07 w=1.8e-07
mX_g2_MXNA1 s nm VSS VPW n12 l=1.3e-07 w=1.8e-07
mX_g1_MXNA1 Q nm VSS VPW n12 l=1.3e-07 w=3.6e-07
mX_g3_MXNA1 QN s VSS VPW n12 l=1.3e-07 w=1.8e-07
mX_g14_MXPA1 net185 CKN VDD VNW p12 l=1.3e-07 w=2.3e-07
MX_t10 net87 CKN VDD VNW p12 l=1.3e-07 w=4.2e-07
MXP2 net87 cn c VNW p12 l=1.3e-07 w=4.2e-07
mX_g9_MXPA1 nmse SE VDD VNW p12 l=1.3e-07 w=2.3e-07
mX_g13_MXPA1 nmin D VDD VNW p12 l=1.3e-07 w=2.6e-07
mXI65_MXPOEN nmsi SE nmin VNW p12 l=1.3e-07 w=2.3e-07
MXP8 p1 nmse VDD VNW p12 l=1.3e-07 w=2.3e-07
MXP9 nmsi SI p1 VNW p12 l=1.3e-07 w=2.3e-07
mX_g10_MXPA1 cn net185 VDD VNW p12 l=1.3e-07 w=6.8e-07
MXP0 net93 c VDD VNW p12 l=1.3e-07 w=3.3e-07
MXP10 pm nmsi net93 VNW p12 l=1.3e-07 w=3.3e-07
mXI7_MXPOEN pm cn XI7_p1 VNW p12 l=1.3e-07 w=2.3e-07
mXI7_MXPA1 XI7_p1 m VDD VNW p12 l=1.3e-07 w=2.3e-07
mX_g5_MXPA1 m pm VDD VNW p12 l=1.3e-07 w=4.8e-07
mXI59_MXPOEN nm cn m VNW p12 l=1.3e-07 w=4.8e-07
mXI8_MXPOEN nm c XI8_p1 VNW p12 l=1.3e-07 w=2.3e-07
mXI8_MXPA1 XI8_p1 s VDD VNW p12 l=1.3e-07 w=2.3e-07
mX_g1_MXPA1 Q nm VDD VNW p12 l=1.3e-07 w=3.1e-07 nf=2
mX_g2_MXPA1 s nm VDD VNW p12 l=1.3e-07 w=2.3e-07
*mX_g1_MXPA1_2 Q nm VDD VNW p12 l=1.3e-07 w=3.1e-07
mX_g3_MXPA1 QN s VDD VNW p12 l=1.3e-07 w=3.6e-07
.ends


.SUBCKT SDFFNHX2MTR Q QN VDD VNW VPW VSS CKN D SE SI
mX_g14_MXNA1 net185 CKN VSS VPW n12 l=1.3e-07 w=2.3e-07
MX_t6 c CKN VSS VPW n12 l=1.3e-07 w=1.8e-07
mX_g9_MXNA1 nmse SE VSS VPW n12 l=1.3e-07 w=1.8e-07
mX_g13_MXNA1 nmin D VSS VPW n12 l=1.3e-07 w=3.1e-07
mXI65_MXNOE nmsi nmse nmin VPW n12 l=1.3e-07 w=1.8e-07
MXN3 nmsi SI n1 VPW n12 l=1.3e-07 w=1.8e-07
MXN4 n1 SE VSS VPW n12 l=1.3e-07 w=1.8e-07
mX_g10_MXNA1 cn net185 VSS VPW n12 l=1.3e-07 w=3e-07
MX_t3 pm nmsi net58 VPW n12 l=1.3e-07 w=6.1e-07
MXN1 net58 cn VSS VPW n12 l=1.3e-07 w=6.1e-07
mXI7_MXNOE pm c XI7_n1 VPW n12 l=1.3e-07 w=1.8e-07
mXI7_MXNA1 XI7_n1 m VSS VPW n12 l=1.3e-07 w=1.8e-07
mX_g5_MXNA1 m pm VSS VPW n12 l=1.3e-07 w=6.3e-07
mXI59_MXNOE nm c m VPW n12 l=1.3e-07 w=5.7e-07
mXI8_MXNOE nm cn XI8_n1 VPW n12 l=1.3e-07 w=1.8e-07
mXI8_MXNA1 XI8_n1 s VSS VPW n12 l=1.3e-07 w=1.8e-07
mX_g2_MXNA1 s nm VSS VPW n12 l=1.3e-07 w=1.8e-07
mX_g1_MXNA1 Q nm VSS VPW n12 l=1.3e-07 w=7.1e-07
mX_g3_MXNA1 QN s VSS VPW n12 l=1.3e-07 w=1.8e-07
mX_g14_MXPA1 net185 CKN VDD VNW p12 l=1.3e-07 w=2.3e-07
MX_t10 net87 CKN VDD VNW p12 l=1.3e-07 w=4.2e-07
MXP2 net87 cn c VNW p12 l=1.3e-07 w=4.2e-07
mX_g9_MXPA1 nmse SE VDD VNW p12 l=1.3e-07 w=2.3e-07
mX_g13_MXPA1 nmin D VDD VNW p12 l=1.3e-07 w=3.7e-07
mXI65_MXPOEN nmsi SE nmin VNW p12 l=1.3e-07 w=2.3e-07
MXP8 p1 nmse VDD VNW p12 l=1.3e-07 w=2.3e-07
MXP9 nmsi SI p1 VNW p12 l=1.3e-07 w=2.3e-07
mX_g10_MXPA1 cn net185 VDD VNW p12 l=1.3e-07 w=8.4e-07
MXP0 net93 c VDD VNW p12 l=1.3e-07 w=4.6e-07
MXP5 pm nmsi net93 VNW p12 l=1.3e-07 w=4.6e-07
mXI7_MXPOEN pm cn XI7_p1 VNW p12 l=1.3e-07 w=2.3e-07
mXI7_MXPA1 XI7_p1 m VDD VNW p12 l=1.3e-07 w=2.3e-07
mX_g5_MXPA1 m pm VDD VNW p12 l=1.3e-07 w=6.9e-07
mXI59_MXPOEN nm cn m VNW p12 l=1.3e-07 w=6.9e-07
mXI8_MXPOEN nm c XI8_p1 VNW p12 l=1.3e-07 w=2.3e-07
mXI8_MXPA1 XI8_p1 s VDD VNW p12 l=1.3e-07 w=2.3e-07
mX_g1_MXPA1 Q nm VDD VNW p12 l=1.3e-07 w=4e-07
mX_g2_MXPA1 s nm VDD VNW p12 l=1.3e-07 w=2.3e-07
mX_g1_MXPA1_2 Q nm VDD VNW p12 l=1.3e-07 w=4e-07
mX_g3_MXPA1 QN s VDD VNW p12 l=1.3e-07 w=3.6e-07
.ends

