* ---------------------------------------------------------------------------- 
* 
*     library Calibre-based CDL file 
* 
*     Date: Jan 31, 2012 7:10:22 PM IST 
* 
*     CellBuilder version 4.0.1 -- built on Nov 11, 2011 
*     Copyright (c) 2002-2011 ARM, Inc. 
*     The confidential and proprietary information contained in this file 
*     may only be used by a person authorised under and to the extent 
*     permitted by a subsisting licensing agreement from ARM Limited. 
*      
*     (C) COPYRIGHT 2004-2012 ARM Limited. 
*     ALL RIGHTS RESERVED 
*      
*     This entire notice must be reproduced on all copies of this file 
*     and copies of this file may only be made by a person if such person 
*     is permitted to do so under the terms of a subsisting license 
*     agreement from ARM Limited. 
* 
* ----------------------------------------------------------------------------

*.SCALE METER
*.OPTION SCALE 1e-6

.SUBCKT ADDFHX1MTR CO S VDD VNW VPW VSS A B CI
mXI0_MXNA1 na A VSS VPW n12 l=130n w=530n
mXI2_MXNA1 na2 A VSS VPW n12 l=1.3e-07 w=270n
mXI15_MXNA1 ba na2 VSS VPW n12 l=1.3e-07 w=6.3e-07
mXI3_MXNOE xnorab B ba VPW n12 l=1.3e-07 w=6.3e-07
mXI1_MXNOE xnorab nb na VPW n12 l=1.3e-07 w=3.9e-07
mXI4_MXNOE xorab B na VPW n12 l=1.3e-07 w=6.3e-07
mXI5_MXNOE xorab nb ba VPW n12 l=1.3e-07 w=3.9e-07
mXI6_MXNA1 nb B VSS VPW n12 l=1.3e-07 w=4.5e-07
mXI6_MXNA1_2 nb B VSS VPW n12 l=1.3e-07 w=4.5e-07
mXI11_MXNOE con xnorab nb VPW n12 l=1.3e-07 w=3.7e-07
mXI12_MXNOE con xorab cin VPW n12 l=1.3e-07 w=3.7e-07
mXI9_MXNOE sumn xnorab cin VPW n12 l=1.3e-07 w=3.7e-07
mXI10_MXNOE sumn xorab cib VPW n12 l=1.3e-07 w=3.7e-07
mXI8_MXNA1 cib cin VSS VPW n12 l=1.3e-07 w=3.7e-07
mXI7_MXNA1 cin CI VSS VPW n12 l=1.3e-07 w=5.3e-07
mXI14_MXNA1 CO con VSS VPW n12 l=1.3e-07 w=3.6e-07
mXI13_MXNA1 S sumn VSS VPW n12 l=1.3e-07 w=3.6e-07
mXI0_MXPA1 na A VDD VNW p12 l=1.3e-07 w=7.7e-07
mXI2_MXPA1 na2 A VDD VNW p12 l=1.3e-07 w=3.3e-07
mXI15_MXPA1 ba na2 VDD VNW p12 l=1.3e-07 w=7.7e-07
mXI3_MXPOEN xnorab nb ba VNW p12 l=1.3e-07 w=7.7e-07
mXI1_MXPOEN xnorab B na VNW p12 l=1.3e-07 w=5.8e-07
mXI4_MXPOEN xorab nb na VNW p12 l=1.3e-07 w=7.7e-07
mXI5_MXPOEN xorab B ba VNW p12 l=1.3e-07 w=6.8e-07
mXI6_MXPA1 nb B VDD VNW p12 l=1.3e-07 w=5.5e-07
mXI6_MXPA1_2 nb B VDD VNW p12 l=1.3e-07 w=5.5e-07
mXI11_MXPOEN con xorab nb VNW p12 l=1.3e-07 w=4.6e-07
mXI12_MXPOEN con xnorab cin VNW p12 l=1.3e-07 w=4.6e-07
mXI9_MXPOEN sumn xorab cin VNW p12 l=1.3e-07 w=4.6e-07
mXI10_MXPOEN sumn xnorab cib VNW p12 l=1.3e-07 w=4.6e-07
mXI8_MXPA1 cib cin VDD VNW p12 l=1.3e-07 w=4.6e-07
mXI7_MXPA1 cin CI VDD VNW p12 l=1.3e-07 w=6.5e-07
mXI14_MXPA1 CO con VDD VNW p12 l=1.3e-07 w=6.1e-07
mXI13_MXPA1 S sumn VDD VNW p12 l=1.3e-07 w=6.2e-07
.ends


.SUBCKT ADDFHX2MTR CO S VDD VNW VPW VSS A B CI
mXI0_MXNA1 na A VSS VPW n12 l=1.3e-07 w=4.4e-07
mXI0_MXNA1_2 na A VSS VPW n12 l=1.3e-07 w=6e-07
mXI2_MXNA1 na2 A VSS VPW n12 l=1.3e-07 w=4.4e-07
mXI15_MXNA1 ba na2 VSS VPW n12 l=1.3e-07 w=4.4e-07
mXI15_MXNA1_2 ba na2 VSS VPW n12 l=1.3e-07 w=6e-07
mXI3_MXNOE xnorab B ba VPW n12 l=1.3e-07 w=5.2e-07
mXI3_MXNOE_2 xnorab B ba VPW n12 l=1.3e-07 w=5.2e-07
mXI1_MXNOE xnorab nb na VPW n12 l=1.3e-07 w=3.6e-07
mXI1_MXNOE_2 xnorab nb na VPW n12 l=1.3e-07 w=3.6e-07
mXI4_MXNOE xorab B na VPW n12 l=1.3e-07 w=3.9e-07
mXI4_MXNOE_2 xorab B na VPW n12 l=1.3e-07 w=3.2e-07
mXI4_MXNOE_3 xorab B na VPW n12 l=1.3e-07 w=3.2e-07
mXI5_MXNOE xorab nb ba VPW n12 l=1.3e-07 w=9.3e-07
mXI6_MXNA1 nb B VSS VPW n12 l=1.3e-07 w=7.4e-07
mXI6_MXNA1_2 nb B VSS VPW n12 l=1.3e-07 w=7.4e-07
mXI11_MXNOE con xnorab nb VPW n12 l=1.3e-07 w=6.1e-07
mXI12_MXNOE con xorab cin VPW n12 l=1.3e-07 w=5.4e-07
mXI9_MXNOE sumn xnorab cin VPW n12 l=1.3e-07 w=2.4e-07
mXI9_MXNOE_2 sumn xnorab cin VPW n12 l=1.3e-07 w=2.4e-07
mXI10_MXNOE sumn xorab cib VPW n12 l=1.3e-07 w=5.5e-07
mXI8_MXNA1 cib cin VSS VPW n12 l=1.3e-07 w=5.5e-07
mXI7_MXNA1 cin CI VSS VPW n12 l=1.3e-07 w=4.4e-07
mXI7_MXNA1_2 cin CI VSS VPW n12 l=1.3e-07 w=4.4e-07
mXI14_MXNA1 CO con VSS VPW n12 l=1.3e-07 w=3.6e-07
mXI14_MXNA1_2 CO con VSS VPW n12 l=1.3e-07 w=3.6e-07
mXI13_MXNA1 S sumn VSS VPW n12 l=1.3e-07 w=6.8e-07
mXI0_MXPA1 na A VDD VNW p12 l=1.3e-07 w=6e-07
mXI0_MXPA1_2 na A VDD VNW p12 l=1.3e-07 w=6.6e-07
mXI2_MXPA1 na2 A VDD VNW p12 l=1.3e-07 w=5.4e-07
mXI15_MXPA1 ba na2 VDD VNW p12 l=1.3e-07 w=6.3e-07
mXI15_MXPA1_2 ba na2 VDD VNW p12 l=1.3e-07 w=6.3e-07
mXI3_MXPOEN xnorab nb ba VNW p12 l=1.3e-07 w=6.3e-07
mXI3_MXPOEN_2 xnorab nb ba VNW p12 l=1.3e-07 w=6.3e-07
mXI1_MXPOEN xnorab B na VNW p12 l=1.3e-07 w=5e-07
mXI1_MXPOEN_2 xnorab B na VNW p12 l=1.3e-07 w=5e-07
mXI4_MXPOEN xorab nb na VNW p12 l=1.3e-07 w=6.3e-07
mXI4_MXPOEN_2 xorab nb na VNW p12 l=1.3e-07 w=6.3e-07
mXI5_MXPOEN xorab B ba VNW p12 l=1.3e-07 w=1.22e-06
mXI6_MXPA1 nb B VDD VNW p12 l=1.3e-07 w=3e-07
mXI6_MXPA1_2 nb B VDD VNW p12 l=1.3e-07 w=3e-07
mXI6_MXPA1_3 nb B VDD VNW p12 l=1.3e-07 w=3e-07
mXI6_MXPA1_4 nb B VDD VNW p12 l=1.3e-07 w=5.5e-07
mXI11_MXPOEN con xorab nb VNW p12 l=1.3e-07 w=3.7e-07
mXI11_MXPOEN_2 con xorab nb VNW p12 l=1.3e-07 w=4.4e-07
mXI12_MXPOEN con xnorab cin VNW p12 l=1.3e-07 w=6e-07
mXI9_MXPOEN sumn xorab cin VNW p12 l=1.3e-07 w=7.4e-07
mXI10_MXPOEN sumn xnorab cib VNW p12 l=1.3e-07 w=7.4e-07
mXI8_MXPA1 cib cin VDD VNW p12 l=1.3e-07 w=7.4e-07
mXI7_MXPA1 cin CI VDD VNW p12 l=1.3e-07 w=9.8e-07
mXI14_MXPA1 CO con VDD VNW p12 l=1.3e-07 w=8.8e-07
mXI13_MXPA1 S sumn VDD VNW p12 l=1.3e-07 w=4.4e-07
mXI13_MXPA1_2 S sumn VDD VNW p12 l=1.3e-07 w=4.4e-07
.ends


.SUBCKT ADDFHX4MTR CO S VDD VNW VPW VSS A B CI
mXI0_MXNA1 na A VSS VPW n12 l=1.3e-07 w=6.8e-07
mXI0_MXNA1_2 na A VSS VPW n12 l=1.3e-07 w=6.8e-07
mXI0_MXNA1_3 na A VSS VPW n12 l=1.3e-07 w=6.8e-07
mXI2_MXNA1 na2 A VSS VPW n12 l=1.3e-07 w=6.8e-07
mXI15_MXNA1 ba na2 VSS VPW n12 l=1.3e-07 w=8.6e-07
mXI15_MXNA1_2 ba na2 VSS VPW n12 l=1.3e-07 w=8.6e-07
mXI3_MXNOE xnorab B ba VPW n12 l=1.3e-07 w=8.6e-07
mXI3_MXNOE_2 xnorab B ba VPW n12 l=1.3e-07 w=6.7e-07
mXI1_MXNOE xnorab nb na VPW n12 l=1.3e-07 w=3.6e-07
mXI1_MXNOE_2 xnorab nb na VPW n12 l=1.3e-07 w=3.6e-07
mXI4_MXNOE xorab B na VPW n12 l=1.3e-07 w=3.9e-07
mXI4_MXNOE_2 xorab B na VPW n12 l=1.3e-07 w=3.2e-07
mXI4_MXNOE_3 xorab B na VPW n12 l=1.3e-07 w=3.2e-07
mXI5_MXNOE xorab nb ba VPW n12 l=1.3e-07 w=9.3e-07
mXI6_MXNA1 nb B VSS VPW n12 l=1.3e-07 w=9.8e-07
mXI6_MXNA1_2 nb B VSS VPW n12 l=1.3e-07 w=9.8e-07
mXI6_MXNA1_3 nb B VSS VPW n12 l=1.3e-07 w=9.8e-07
mXI11_MXNOE con xnorab nb VPW n12 l=1.3e-07 w=6.1e-07
mXI12_MXNOE con xorab cin VPW n12 l=1.3e-07 w=5.4e-07
mXI9_MXNOE sumn xnorab cin VPW n12 l=1.3e-07 w=2.4e-07
mXI9_MXNOE_2 sumn xnorab cin VPW n12 l=1.3e-07 w=2.4e-07
mXI10_MXNOE sumn xorab cib VPW n12 l=1.3e-07 w=5.5e-07
mXI8_MXNA1 cib cin VSS VPW n12 l=1.3e-07 w=5.5e-07
mXI8_MXNA1_2 cib cin VSS VPW n12 l=1.3e-07 w=5.5e-07
mXI7_MXNA1 cin CI VSS VPW n12 l=1.3e-07 w=5.5e-07
mXI7_MXNA1_2 cin CI VSS VPW n12 l=1.3e-07 w=5.5e-07
mXI7_MXNA1_3 cin CI VSS VPW n12 l=1.3e-07 w=5.5e-07
mXI14_MXNA1 CO con VSS VPW n12 l=1.3e-07 w=5.9e-07
mXI14_MXNA1_2 CO con VSS VPW n12 l=1.3e-07 w=7e-07
mXI13_MXNA1 S sumn VSS VPW n12 l=1.3e-07 w=6.8e-07
mXI13_MXNA1_2 S sumn VSS VPW n12 l=1.3e-07 w=6.8e-07
mXI0_MXPA1 na A VDD VNW p12 l=1.3e-07 w=8.5e-07
mXI0_MXPA1_2 na A VDD VNW p12 l=1.3e-07 w=8.5e-07
mXI0_MXPA1_3 na A VDD VNW p12 l=1.3e-07 w=8.5e-07
mXI2_MXPA1 na2 A VDD VNW p12 l=1.3e-07 w=8.5e-07
mXI15_MXPA1 ba na2 VDD VNW p12 l=1.3e-07 w=6.7e-07
mXI15_MXPA1_2 ba na2 VDD VNW p12 l=1.3e-07 w=6.7e-07
mXI15_MXPA1_3 ba na2 VDD VNW p12 l=1.3e-07 w=6.7e-07
mXI3_MXPOEN xnorab nb ba VNW p12 l=1.3e-07 w=6.7e-07
mXI3_MXPOEN_2 xnorab nb ba VNW p12 l=1.3e-07 w=6.7e-07
mXI1_MXPOEN xnorab B na VNW p12 l=1.3e-07 w=5.5e-07
mXI1_MXPOEN_2 xnorab B na VNW p12 l=1.3e-07 w=5.5e-07
mXI4_MXPOEN xorab nb na VNW p12 l=1.3e-07 w=8.6e-07
mXI4_MXPOEN_2 xorab nb na VNW p12 l=1.3e-07 w=1.01e-06
mXI5_MXPOEN xorab B ba VNW p12 l=1.3e-07 w=1.2e-06
mXI6_MXPA1 nb B VDD VNW p12 l=1.3e-07 w=3e-07
mXI6_MXPA1_2 nb B VDD VNW p12 l=1.3e-07 w=3e-07
mXI6_MXPA1_3 nb B VDD VNW p12 l=1.3e-07 w=3e-07
mXI6_MXPA1_4 nb B VDD VNW p12 l=1.3e-07 w=5.5e-07
mXI6_MXPA1_5 nb B VDD VNW p12 l=1.3e-07 w=5.5e-07
mXI6_MXPA1_6 nb B VDD VNW p12 l=1.3e-07 w=5.5e-07
mXI6_MXPA1_7 nb B VDD VNW p12 l=1.3e-07 w=5.5e-07
mXI11_MXPOEN con xorab nb VNW p12 l=1.3e-07 w=5.2e-07
mXI11_MXPOEN_2 con xorab nb VNW p12 l=1.3e-07 w=5.2e-07
mXI12_MXPOEN con xnorab cin VNW p12 l=1.3e-07 w=6e-07
mXI9_MXPOEN sumn xorab cin VNW p12 l=1.3e-07 w=7.4e-07
mXI10_MXPOEN sumn xnorab cib VNW p12 l=1.3e-07 w=9.8e-07
mXI8_MXPA1 cib cin VDD VNW p12 l=1.3e-07 w=9.8e-07
mXI8_MXPA1_2 cib cin VDD VNW p12 l=1.3e-07 w=5.1e-07
mXI7_MXPA1 cin CI VDD VNW p12 l=1.3e-07 w=9.8e-07
mXI7_MXPA1_2 cin CI VDD VNW p12 l=1.3e-07 w=9.8e-07
mXI14_MXPA1 CO con VDD VNW p12 l=1.3e-07 w=8.5e-07
mXI14_MXPA1_2 CO con VDD VNW p12 l=1.3e-07 w=8.5e-07
mXI13_MXPA1 S sumn VDD VNW p12 l=1.3e-07 w=8.5e-07
mXI13_MXPA1_2 S sumn VDD VNW p12 l=1.3e-07 w=8.5e-07
.ends


.SUBCKT ADDFHX8MTR CO S VDD VNW VPW VSS A B CI
mXI0_MXNA1 na A VSS VPW n12 l=1.3e-07 w=6.9e-07
mXI0_MXNA1_2 na A VSS VPW n12 l=1.3e-07 w=6.9e-07
mXI0_MXNA1_3 na A VSS VPW n12 l=1.3e-07 w=6.9e-07
mXI0_MXNA1_4 na A VSS VPW n12 l=1.3e-07 w=6.9e-07
mXI0_MXNA1_5 na A VSS VPW n12 l=1.3e-07 w=6.9e-07
mXI2_MXNA1 na2 A VSS VPW n12 l=1.3e-07 w=3.7e-07
mXI2_MXNA1_2 na2 A VSS VPW n12 l=1.3e-07 w=6.9e-07
mXI2_MXNA1_3 na2 A VSS VPW n12 l=1.3e-07 w=6.9e-07
mXI15_MXNA1 ba na2 VSS VPW n12 l=1.3e-07 w=6.9e-07
mXI15_MXNA1_2 ba na2 VSS VPW n12 l=1.3e-07 w=6.9e-07
mXI15_MXNA1_3 ba na2 VSS VPW n12 l=1.3e-07 w=6.9e-07
mXI15_MXNA1_4 ba na2 VSS VPW n12 l=1.3e-07 w=6.9e-07
mXI15_MXNA1_5 ba na2 VSS VPW n12 l=1.3e-07 w=6.9e-07
mXI15_MXNA1_6 ba na2 VSS VPW n12 l=1.3e-07 w=6.9e-07
mXI3_MXNOE xnorab B ba VPW n12 l=1.3e-07 w=6.9e-07
mXI3_MXNOE_2 xnorab B ba VPW n12 l=1.3e-07 w=6.7e-07
mXI1_MXNOE xnorab nb na VPW n12 l=1.3e-07 w=3.6e-07
mXI1_MXNOE_2 xnorab nb na VPW n12 l=1.3e-07 w=3.6e-07
mXI4_MXNOE xorab B na VPW n12 l=1.3e-07 w=3.7e-07
mXI4_MXNOE_2 xorab B na VPW n12 l=1.3e-07 w=3.2e-07
mXI4_MXNOE_3 xorab B na VPW n12 l=1.3e-07 w=3.2e-07
mXI5_MXNOE xorab nb ba VPW n12 l=1.3e-07 w=6.7e-07
mXI6_MXNA1 nb B VSS VPW n12 l=1.3e-07 w=9.9e-07
mXI6_MXNA1_2 nb B VSS VPW n12 l=1.3e-07 w=9.9e-07
mXI11_MXNOE con xnorab nb VPW n12 l=1.3e-07 w=6.1e-07
mXI12_MXNOE con xorab cin VPW n12 l=1.3e-07 w=5.4e-07
mXI9_MXNOE sumn xnorab cin VPW n12 l=1.3e-07 w=2.4e-07
mXI9_MXNOE_2 sumn xnorab cin VPW n12 l=1.3e-07 w=2.4e-07
mXI10_MXNOE sumn xorab cib VPW n12 l=1.3e-07 w=5.5e-07
mXI8_MXNA1 cib cin VSS VPW n12 l=1.3e-07 w=5.5e-07
mXI7_MXNA1 cin CI VSS VPW n12 l=1.3e-07 w=6.7e-07
mXI7_MXNA1_2 cin CI VSS VPW n12 l=1.3e-07 w=6.7e-07
mXI7_MXNA1_3 cin CI VSS VPW n12 l=1.3e-07 w=6.7e-07
mXI7_MXNA1_4 cin CI VSS VPW n12 l=1.3e-07 w=6.7e-07
mXI7_MXNA1_5 cin CI VSS VPW n12 l=1.3e-07 w=6.7e-07
mXI14_MXNA1 CO con VSS VPW n12 l=1.3e-07 w=6.7e-07
mXI14_MXNA1_2 CO con VSS VPW n12 l=1.3e-07 w=6.7e-07
mXI14_MXNA1_3 CO con VSS VPW n12 l=1.3e-07 w=6.9e-07
mXI14_MXNA1_4 CO con VSS VPW n12 l=1.3e-07 w=6.9e-07
mXI13_MXNA1 S sumn VSS VPW n12 l=1.3e-07 w=6.9e-07
mXI13_MXNA1_2 S sumn VSS VPW n12 l=1.3e-07 w=6.9e-07
mXI13_MXNA1_3 S sumn VSS VPW n12 l=1.3e-07 w=6.9e-07
mXI13_MXNA1_4 S sumn VSS VPW n12 l=1.3e-07 w=6.9e-07
mXI0_MXPA1 na A VDD VNW p12 l=1.3e-07 w=6.3e-07
mXI0_MXPA1_2 na A VDD VNW p12 l=1.3e-07 w=8.5e-07
mXI0_MXPA1_3 na A VDD VNW p12 l=1.3e-07 w=8.5e-07
mXI0_MXPA1_4 na A VDD VNW p12 l=1.3e-07 w=8.5e-07
mXI0_MXPA1_5 na A VDD VNW p12 l=1.3e-07 w=8.5e-07
mXI0_MXPA1_6 na A VDD VNW p12 l=1.3e-07 w=8.5e-07
mXI2_MXPA1 na2 A VDD VNW p12 l=1.3e-07 w=4.4e-07
mXI2_MXPA1_2 na2 A VDD VNW p12 l=1.3e-07 w=8.5e-07
mXI2_MXPA1_3 na2 A VDD VNW p12 l=1.3e-07 w=8.5e-07
mXI15_MXPA1 ba na2 VDD VNW p12 l=1.3e-07 w=8.5e-07
mXI15_MXPA1_2 ba na2 VDD VNW p12 l=1.3e-07 w=8.5e-07
mXI15_MXPA1_3 ba na2 VDD VNW p12 l=1.3e-07 w=8.5e-07
mXI15_MXPA1_4 ba na2 VDD VNW p12 l=1.3e-07 w=8.5e-07
mXI15_MXPA1_5 ba na2 VDD VNW p12 l=1.3e-07 w=8.5e-07
mXI15_MXPA1_6 ba na2 VDD VNW p12 l=1.3e-07 w=6.7e-07
mXI3_MXPOEN xnorab nb ba VNW p12 l=1.3e-07 w=6.7e-07
mXI3_MXPOEN_2 xnorab nb ba VNW p12 l=1.3e-07 w=6.7e-07
mXI1_MXPOEN xnorab B na VNW p12 l=1.3e-07 w=5.5e-07
mXI1_MXPOEN_2 xnorab B na VNW p12 l=1.3e-07 w=5.5e-07
mXI4_MXPOEN xorab nb na VNW p12 l=1.3e-07 w=8.6e-07
mXI4_MXPOEN_2 xorab nb na VNW p12 l=1.3e-07 w=1.01e-06
mXI5_MXPOEN xorab B ba VNW p12 l=1.3e-07 w=1.22e-06
mXI6_MXPA1 nb B VDD VNW p12 l=1.3e-07 w=5.5e-07
mXI6_MXPA1_2 nb B VDD VNW p12 l=1.3e-07 w=5.5e-07
mXI6_MXPA1_3 nb B VDD VNW p12 l=1.3e-07 w=5.5e-07
mXI6_MXPA1_4 nb B VDD VNW p12 l=1.3e-07 w=5.5e-07
mXI11_MXPOEN con xorab nb VNW p12 l=1.3e-07 w=5.3e-07
mXI11_MXPOEN_2 con xorab nb VNW p12 l=1.3e-07 w=5.3e-07
mXI12_MXPOEN con xnorab cin VNW p12 l=1.3e-07 w=6e-07
mXI9_MXPOEN sumn xorab cin VNW p12 l=1.3e-07 w=9.8e-07
mXI10_MXPOEN sumn xnorab cib VNW p12 l=1.3e-07 w=9.8e-07
mXI8_MXPA1 cib cin VDD VNW p12 l=1.3e-07 w=7.4e-07
mXI7_MXPA1 cin CI VDD VNW p12 l=1.3e-07 w=8.6e-07
mXI7_MXPA1_2 cin CI VDD VNW p12 l=1.3e-07 w=8.6e-07
mXI7_MXPA1_3 cin CI VDD VNW p12 l=1.3e-07 w=8.6e-07
mXI7_MXPA1_4 cin CI VDD VNW p12 l=1.3e-07 w=8.6e-07
mXI7_MXPA1_5 cin CI VDD VNW p12 l=1.3e-07 w=8.6e-07
mXI14_MXPA1 CO con VDD VNW p12 l=1.3e-07 w=8.5e-07
mXI14_MXPA1_2 CO con VDD VNW p12 l=1.3e-07 w=8.5e-07
mXI14_MXPA1_3 CO con VDD VNW p12 l=1.3e-07 w=8.5e-07
mXI14_MXPA1_4 CO con VDD VNW p12 l=1.3e-07 w=8.5e-07
mXI13_MXPA1 S sumn VDD VNW p12 l=1.3e-07 w=3.4e-07
mXI13_MXPA1_2 S sumn VDD VNW p12 l=1.3e-07 w=8.5e-07
mXI13_MXPA1_3 S sumn VDD VNW p12 l=1.3e-07 w=8.5e-07
mXI13_MXPA1_4 S sumn VDD VNW p12 l=1.3e-07 w=8.5e-07
.ends


.SUBCKT ADDFHXLMTR CO S VDD VNW VPW VSS A B CI
mXI0_MXNA1 na A VSS VPW n12 l=1.3e-07 w=3.5e-07
mXI2_MXNA1 na2 A VSS VPW n12 l=1.3e-07 w=1.8e-07
mXI15_MXNA1 ba na2 VSS VPW n12 l=1.3e-07 w=3.5e-07
mXI3_MXNOE xnorab B ba VPW n12 l=1.3e-07 w=3.5e-07
mXI1_MXNOE xnorab nb na VPW n12 l=1.3e-07 w=3.5e-07
mXI4_MXNOE xorab B na VPW n12 l=1.3e-07 w=3.5e-07
mXI25_MXNOE xorab nb ba VPW n12 l=1.3e-07 w=3.5e-07
mXI6_MXNA1 nb B VSS VPW n12 l=1.3e-07 w=4.9e-07
mXI23_MXNOE con xnorab nb VPW n12 l=1.3e-07 w=2.1e-07
mXI24_MXNOE con xorab cin VPW n12 l=1.3e-07 w=2.1e-07
mXI9_MXNOE sumn xnorab cin VPW n12 l=1.3e-07 w=2.1e-07
mXI22_MXNOE sumn xorab cib VPW n12 l=1.3e-07 w=2.1e-07
mXI8_MXNA1 cib cin VSS VPW n12 l=1.3e-07 w=2.1e-07
mXI7_MXNA1 cin CI VSS VPW n12 l=1.3e-07 w=3e-07
mXI14_MXNA1 CO con VSS VPW n12 l=1.3e-07 w=1.8e-07
mXI13_MXNA1 S sumn VSS VPW n12 l=1.3e-07 w=1.8e-07
mXI0_MXPA1 na A VDD VNW p12 l=1.3e-07 w=4.3e-07
mXI2_MXPA1 na2 A VDD VNW p12 l=1.3e-07 w=2.3e-07
mXI15_MXPA1 ba na2 VDD VNW p12 l=1.3e-07 w=4.3e-07
mXI3_MXPOEN xnorab nb ba VNW p12 l=1.3e-07 w=4.3e-07
mXI1_MXPOEN xnorab B na VNW p12 l=1.3e-07 w=4.3e-07
mXI4_MXPOEN xorab nb na VNW p12 l=1.3e-07 w=4.3e-07
mXI25_MXPOEN xorab B ba VNW p12 l=1.3e-07 w=4.3e-07
mXI6_MXPA1 nb B VDD VNW p12 l=1.3e-07 w=3.1e-07
mXI6_MXPA1_2 nb B VDD VNW p12 l=1.3e-07 w=3e-07
mXI23_MXPOEN con xorab nb VNW p12 l=1.3e-07 w=2.5e-07
mXI24_MXPOEN con xnorab cin VNW p12 l=1.3e-07 w=2.5e-07
mXI9_MXPOEN sumn xorab cin VNW p12 l=1.3e-07 w=2.5e-07
mXI22_MXPOEN sumn xnorab cib VNW p12 l=1.3e-07 w=2.5e-07
mXI8_MXPA1 cib cin VDD VNW p12 l=1.3e-07 w=2.5e-07
mXI7_MXPA1 cin CI VDD VNW p12 l=1.3e-07 w=3.6e-07
mXI14_MXPA1 CO con VDD VNW p12 l=1.3e-07 w=3.6e-07
mXI13_MXPA1 S sumn VDD VNW p12 l=1.3e-07 w=3.6e-07
.ends


.SUBCKT ADDFX1MTR CO S VDD VNW VPW VSS A B CI
mX_g4_MXNA1 nb B VSS VPW n12 l=1.3e-07 w=7.1e-07
mX_g3_MXNA1 bb nb VSS VPW n12 l=1.3e-07 w=5e-07
MXN0 xo na bb VPW n12 l=1.3e-07 w=4.5e-07
mXI6_MXNOE xo bb na VPW n12 l=1.3e-07 w=3e-07
mX_g5_MXNA1 na A VSS VPW n12 l=1.3e-07 w=3.6e-07
mX_g5_MXNA1_2 na A VSS VPW n12 l=1.3e-07 w=3.6e-07
mXI5_MXNOE xn nb na VPW n12 l=1.3e-07 w=3e-07
MX_t8 xn na nb VPW n12 l=1.3e-07 w=4.5e-07
mXI7_MXNOE nco xn nb VPW n12 l=1.3e-07 w=3e-07
mXI8_MXNOE nci xo nco VPW n12 l=1.3e-07 w=3e-07
mX_g2_MXNA1 nci CI VSS VPW n12 l=1.3e-07 w=3e-07
mXI10_MXNOE ns CI xo VPW n12 l=1.3e-07 w=3e-07
mXI9_MXNOE ns nci xn VPW n12 l=1.3e-07 w=3e-07
mX_g1_MXNA1 CO nco VSS VPW n12 l=1.3e-07 w=3.6e-07
mX_g0_MXNA1 S ns VSS VPW n12 l=1.3e-07 w=3.6e-07
mX_g4_MXPA1 nb B VDD VNW p12 l=1.3e-07 w=8.7e-07
mX_g3_MXPA1 bb nb VDD VNW p12 l=1.3e-07 w=6.1e-07
MX_t9 bb na xn VNW p12 l=1.3e-07 w=5.5e-07
mXI5_MXPOEN xn bb na VNW p12 l=1.3e-07 w=3.7e-07
mX_g5_MXPA1 na A VDD VNW p12 l=1.3e-07 w=8.8e-07
mXI6_MXPOEN xo nb na VNW p12 l=1.3e-07 w=3.7e-07
MXP0 nb na xo VNW p12 l=1.3e-07 w=5.5e-07
mXI7_MXPOEN nco xo nb VNW p12 l=1.3e-07 w=3.7e-07
mXI8_MXPOEN nci xn nco VNW p12 l=1.3e-07 w=3.7e-07
mX_g2_MXPA1 nci CI VDD VNW p12 l=1.3e-07 w=3.7e-07
mXI10_MXPOEN ns nci xo VNW p12 l=1.3e-07 w=3.7e-07
mXI9_MXPOEN ns CI xn VNW p12 l=1.3e-07 w=3.7e-07
mX_g1_MXPA1 CO nco VDD VNW p12 l=1.3e-07 w=6.2e-07
mX_g0_MXPA1 S ns VDD VNW p12 l=1.3e-07 w=6.2e-07
.ends


.SUBCKT ADDFX2MTR CO S VDD VNW VPW VSS A B CI
mX_g4_MXNA1 nb B VSS VPW n12 l=1.3e-07 w=7.1e-07
mX_g3_MXNA1 bb nb VSS VPW n12 l=1.3e-07 w=5e-07
MXN0 xo na bb VPW n12 l=1.3e-07 w=4.5e-07
mXI6_MXNOE xo bb na VPW n12 l=1.3e-07 w=3e-07
mX_g5_MXNA1 na A VSS VPW n12 l=1.3e-07 w=3.6e-07
mX_g5_MXNA1_2 na A VSS VPW n12 l=1.3e-07 w=3.6e-07
mXI5_MXNOE xn nb na VPW n12 l=1.3e-07 w=3e-07
MX_t8 xn na nb VPW n12 l=1.3e-07 w=4.5e-07
mXI7_MXNOE nco xn nb VPW n12 l=1.3e-07 w=3e-07
mXI8_MXNOE nci xo nco VPW n12 l=1.3e-07 w=3e-07
mX_g2_MXNA1 nci CI VSS VPW n12 l=1.3e-07 w=3e-07
mXI10_MXNOE ns CI xo VPW n12 l=1.3e-07 w=3e-07
mXI9_MXNOE ns nci xn VPW n12 l=1.3e-07 w=3e-07
mX_g1_MXNA1 CO nco VSS VPW n12 l=1.3e-07 w=6.8e-07
mX_g0_MXNA1 S ns VSS VPW n12 l=1.3e-07 w=6.8e-07
mX_g4_MXPA1 nb B VDD VNW p12 l=1.3e-07 w=8.7e-07
mX_g3_MXPA1 bb nb VDD VNW p12 l=1.3e-07 w=6.1e-07
MX_t9 bb na xn VNW p12 l=1.3e-07 w=5.5e-07
mXI5_MXPOEN xn bb na VNW p12 l=1.3e-07 w=3.5e-07
mX_g5_MXPA1 na A VDD VNW p12 l=1.3e-07 w=8.8e-07
mXI6_MXPOEN xo nb na VNW p12 l=1.3e-07 w=3.7e-07
MXP0 nb na xo VNW p12 l=1.3e-07 w=5.5e-07
mXI7_MXPOEN nco xo nb VNW p12 l=1.3e-07 w=3.7e-07
mXI8_MXPOEN nci xn nco VNW p12 l=1.3e-07 w=3.7e-07
mX_g2_MXPA1 nci CI VDD VNW p12 l=1.3e-07 w=3.7e-07
mXI10_MXPOEN ns nci xo VNW p12 l=1.3e-07 w=3.7e-07
mXI9_MXPOEN ns CI xn VNW p12 l=1.3e-07 w=3.7e-07
mX_g1_MXPA1 CO nco VDD VNW p12 l=1.3e-07 w=8.8e-07
mX_g0_MXPA1 S ns VDD VNW p12 l=1.3e-07 w=8.7e-07
.ends


.SUBCKT ADDFX4MTR CO S VDD VNW VPW VSS A B CI
mX_g4_MXNA1 nb B VSS VPW n12 l=1.3e-07 w=7.1e-07
mX_g3_MXNA1 bb nb VSS VPW n12 l=1.3e-07 w=5e-07
MXN0 xo na bb VPW n12 l=1.3e-07 w=4.5e-07
mXI6_MXNOE xo bb na VPW n12 l=1.3e-07 w=3e-07
mX_g5_MXNA1 na A VSS VPW n12 l=1.3e-07 w=3.6e-07
mX_g5_MXNA1_2 na A VSS VPW n12 l=1.3e-07 w=3.6e-07
mXI5_MXNOE xn nb na VPW n12 l=1.3e-07 w=3e-07
MX_t8 xn na nb VPW n12 l=1.3e-07 w=4.5e-07
mXI7_MXNOE nco xn nb VPW n12 l=1.3e-07 w=3e-07
mXI8_MXNOE nci xo nco VPW n12 l=1.3e-07 w=3e-07
mX_g2_MXNA1 nci CI VSS VPW n12 l=1.3e-07 w=3e-07
mXI10_MXNOE ns CI xo VPW n12 l=1.3e-07 w=3e-07
mXI9_MXNOE ns nci xn VPW n12 l=1.3e-07 w=3e-07
mX_g1_MXNA1 CO nco VSS VPW n12 l=1.3e-07 w=6.9e-07
mX_g1_MXNA1_2 CO nco VSS VPW n12 l=1.3e-07 w=7.1e-07
mX_g0_MXNA1 S ns VSS VPW n12 l=1.3e-07 w=7.1e-07
mX_g0_MXNA1_2 S ns VSS VPW n12 l=1.3e-07 w=7.1e-07
mX_g4_MXPA1 nb B VDD VNW p12 l=1.3e-07 w=8.7e-07
mX_g3_MXPA1 bb nb VDD VNW p12 l=1.3e-07 w=6.1e-07
MX_t9 bb na xn VNW p12 l=1.3e-07 w=5.5e-07
mXI5_MXPOEN xn bb na VNW p12 l=1.3e-07 w=3.5e-07
mX_g5_MXPA1 na A VDD VNW p12 l=1.3e-07 w=8.8e-07
mXI6_MXPOEN xo nb na VNW p12 l=1.3e-07 w=3.7e-07
MXP0 nb na xo VNW p12 l=1.3e-07 w=5.5e-07
mXI7_MXPOEN nco xo nb VNW p12 l=1.3e-07 w=3.7e-07
mXI8_MXPOEN nci xn nco VNW p12 l=1.3e-07 w=3.7e-07
mX_g2_MXPA1 nci CI VDD VNW p12 l=1.3e-07 w=3.7e-07
mXI10_MXPOEN ns nci xo VNW p12 l=1.3e-07 w=3.7e-07
mXI9_MXPOEN ns CI xn VNW p12 l=1.3e-07 w=3.7e-07
mX_g1_MXPA1 CO nco VDD VNW p12 l=1.3e-07 w=8.7e-07
mX_g1_MXPA1_2 CO nco VDD VNW p12 l=1.3e-07 w=8.7e-07
mX_g0_MXPA1 S ns VDD VNW p12 l=1.3e-07 w=8.7e-07
mX_g0_MXPA1_2 S ns VDD VNW p12 l=1.3e-07 w=8.7e-07
.ends


.SUBCKT ADDFX8MTR CO S VDD VNW VPW VSS A B CI
mX_g4_MXNA1 nb B VSS VPW n12 l=1.3e-07 w=7.1e-07
mX_g3_MXNA1 bb nb VSS VPW n12 l=1.3e-07 w=5e-07
MXN0 xo na bb VPW n12 l=1.3e-07 w=4.5e-07
mXI6_MXNOE xo bb na VPW n12 l=1.3e-07 w=3e-07
mX_g5_MXNA1 na A VSS VPW n12 l=1.3e-07 w=3.6e-07
mX_g5_MXNA1_2 na A VSS VPW n12 l=1.3e-07 w=3.6e-07
mXI5_MXNOE xn nb na VPW n12 l=1.3e-07 w=3e-07
MX_t8 xn na nb VPW n12 l=1.3e-07 w=4.5e-07
mXI7_MXNOE nco xn nb VPW n12 l=1.3e-07 w=3e-07
mXI8_MXNOE nci xo nco VPW n12 l=1.3e-07 w=3e-07
mX_g2_MXNA1 nci CI VSS VPW n12 l=1.3e-07 w=3e-07
mXI10_MXNOE ns CI xo VPW n12 l=1.3e-07 w=3e-07
mXI9_MXNOE ns nci xn VPW n12 l=1.3e-07 w=3e-07
mX_g1_MXNA1 CO nco VSS VPW n12 l=1.3e-07 w=6.9e-07
mX_g1_MXNA1_2 CO nco VSS VPW n12 l=1.3e-07 w=6.9e-07
mX_g1_MXNA1_3 CO nco VSS VPW n12 l=1.3e-07 w=7.1e-07
mX_g1_MXNA1_4 CO nco VSS VPW n12 l=1.3e-07 w=7.1e-07
mX_g0_MXNA1 S ns VSS VPW n12 l=1.3e-07 w=7.1e-07
mX_g0_MXNA1_2 S ns VSS VPW n12 l=1.3e-07 w=7.1e-07
mX_g0_MXNA1_3 S ns VSS VPW n12 l=1.3e-07 w=7.1e-07
mX_g0_MXNA1_4 S ns VSS VPW n12 l=1.3e-07 w=7.1e-07
mX_g4_MXPA1 nb B VDD VNW p12 l=1.3e-07 w=8.7e-07
mX_g3_MXPA1 bb nb VDD VNW p12 l=1.3e-07 w=6.1e-07
MX_t9 bb na xn VNW p12 l=1.3e-07 w=5.5e-07
mXI5_MXPOEN xn bb na VNW p12 l=1.3e-07 w=3.5e-07
mX_g5_MXPA1 na A VDD VNW p12 l=1.3e-07 w=8.8e-07
mXI6_MXPOEN xo nb na VNW p12 l=1.3e-07 w=3.7e-07
MXP0 nb na xo VNW p12 l=1.3e-07 w=5.5e-07
mXI7_MXPOEN nco xo nb VNW p12 l=1.3e-07 w=3.7e-07
mXI8_MXPOEN nci xn nco VNW p12 l=1.3e-07 w=3.7e-07
mX_g2_MXPA1 nci CI VDD VNW p12 l=1.3e-07 w=3.7e-07
mXI10_MXPOEN ns nci xo VNW p12 l=1.3e-07 w=3.7e-07
mXI9_MXPOEN ns CI xn VNW p12 l=1.3e-07 w=3.7e-07
mX_g1_MXPA1 CO nco VDD VNW p12 l=1.3e-07 w=8.7e-07
mX_g1_MXPA1_2 CO nco VDD VNW p12 l=1.3e-07 w=8.7e-07
mX_g1_MXPA1_3 CO nco VDD VNW p12 l=1.3e-07 w=8.7e-07
mX_g1_MXPA1_4 CO nco VDD VNW p12 l=1.3e-07 w=8.7e-07
mX_g0_MXPA1 S ns VDD VNW p12 l=1.3e-07 w=8.7e-07
mX_g0_MXPA1_2 S ns VDD VNW p12 l=1.3e-07 w=8.7e-07
mX_g0_MXPA1_3 S ns VDD VNW p12 l=1.3e-07 w=8.7e-07
mX_g0_MXPA1_4 S ns VDD VNW p12 l=1.3e-07 w=8.7e-07
.ends


.SUBCKT ADDFXLMTR CO S VDD VNW VPW VSS A B CI
mX_g4_MXNA1 nb B VSS VPW n12 l=1.3e-07 w=7.1e-07
mX_g3_MXNA1 bb nb VSS VPW n12 l=1.3e-07 w=5e-07
MXN0 xo na bb VPW n12 l=1.3e-07 w=4.5e-07
mXI6_MXNOE xo bb na VPW n12 l=1.3e-07 w=3e-07
mX_g5_MXNA1 na A VSS VPW n12 l=1.3e-07 w=3.6e-07
mX_g5_MXNA1_2 na A VSS VPW n12 l=1.3e-07 w=3.6e-07
mXI5_MXNOE xn nb na VPW n12 l=1.3e-07 w=3e-07
MX_t8 xn na nb VPW n12 l=1.3e-07 w=4.5e-07
mXI7_MXNOE nco xn nb VPW n12 l=1.3e-07 w=3e-07
mXI8_MXNOE nci xo nco VPW n12 l=1.3e-07 w=3e-07
mX_g2_MXNA1 nci CI VSS VPW n12 l=1.3e-07 w=3e-07
mXI10_MXNOE ns CI xo VPW n12 l=1.3e-07 w=3e-07
mXI9_MXNOE ns nci xn VPW n12 l=1.3e-07 w=3e-07
mX_g1_MXNA1 CO nco VSS VPW n12 l=1.3e-07 w=1.8e-07
mX_g0_MXNA1 S ns VSS VPW n12 l=1.3e-07 w=1.8e-07
mX_g4_MXPA1 nb B VDD VNW p12 l=1.3e-07 w=8.7e-07
mX_g3_MXPA1 bb nb VDD VNW p12 l=1.3e-07 w=6.1e-07
MX_t9 bb na xn VNW p12 l=1.3e-07 w=5.5e-07
mXI5_MXPOEN xn bb na VNW p12 l=1.3e-07 w=3.7e-07
mX_g5_MXPA1 na A VDD VNW p12 l=1.3e-07 w=8.8e-07
mXI6_MXPOEN xo nb na VNW p12 l=1.3e-07 w=3.7e-07
MXP0 nb na xo VNW p12 l=1.3e-07 w=5.5e-07
mXI7_MXPOEN nco xo nb VNW p12 l=1.3e-07 w=3.7e-07
mXI8_MXPOEN nci xn nco VNW p12 l=1.3e-07 w=3.7e-07
mX_g2_MXPA1 nci CI VDD VNW p12 l=1.3e-07 w=3.7e-07
mXI10_MXPOEN ns nci xo VNW p12 l=1.3e-07 w=3.7e-07
mXI9_MXPOEN ns CI xn VNW p12 l=1.3e-07 w=3.7e-07
mX_g1_MXPA1 CO nco VDD VNW p12 l=1.3e-07 w=3.6e-07
mX_g0_MXPA1 S ns VDD VNW p12 l=1.3e-07 w=3.6e-07
.ends


.SUBCKT ADDHX1MTR CO S VDD VNW VPW VSS A B
mX_g3_MXNA1 ba na VSS VPW n12 l=1.3e-07 w=3.6e-07
mX_g1_MXNA1 nb B VSS VPW n12 l=1.3e-07 w=1.8e-07
mXI10_MXNOE S nb ba VPW n12 l=1.3e-07 w=3e-07
mXI9_MXNOE S B na VPW n12 l=1.3e-07 w=3e-07
mX_g4_MXNA1 na A VSS VPW n12 l=1.3e-07 w=5.5e-07
mX_g2_MXNA2 X_g2_n1 A VSS VPW n12 l=1.3e-07 w=2.3e-07
mX_g2_MXNA1 nco B X_g2_n1 VPW n12 l=1.3e-07 w=2.3e-07
mX_g0_MXNA1 CO nco VSS VPW n12 l=1.3e-07 w=3.6e-07
mX_g3_MXPA1 ba na VDD VNW p12 l=1.3e-07 w=6.2e-07
mX_g1_MXPA1 nb B VDD VNW p12 l=1.3e-07 w=2.3e-07
mXI10_MXPOEN S B ba VNW p12 l=1.3e-07 w=3.8e-07
mXI9_MXPOEN S nb na VNW p12 l=1.3e-07 w=3.8e-07
mX_g4_MXPA1 na A VDD VNW p12 l=1.3e-07 w=6.7e-07
mX_g2_MXPA2 nco A VDD VNW p12 l=1.3e-07 w=2.3e-07
mX_g2_MXPA1 nco B VDD VNW p12 l=1.3e-07 w=2.3e-07
mX_g0_MXPA1 CO nco VDD VNW p12 l=1.3e-07 w=6.2e-07
.ends


.SUBCKT ADDHX2MTR CO S VDD VNW VPW VSS A B
mX_g1_MXNA1 nb B VSS VPW n12 l=1.3e-07 w=2.6e-07
mX_g3_MXNA1 ba na VSS VPW n12 l=1.3e-07 w=6.9e-07
mXI10_MXNOE S nb ba VPW n12 l=1.3e-07 w=6e-07
mXI9_MXNOE S B na VPW n12 l=1.3e-07 w=6e-07
mX_g2_MXNA1 nco B X_g2_n1 VPW n12 l=1.3e-07 w=3.7e-07
mX_g2_MXNA2 X_g2_n1 A VSS VPW n12 l=1.3e-07 w=3.7e-07
mX_g4_MXNA1 na A VSS VPW n12 l=1.3e-07 w=5.8e-07
mX_g4_MXNA1_2 na A VSS VPW n12 l=1.3e-07 w=5.8e-07
mX_g4_MXNA1_3 na A VSS VPW n12 l=1.3e-07 w=5.9e-07
mX_g0_MXNA1 CO nco VSS VPW n12 l=1.3e-07 w=7.1e-07
mX_g1_MXPA1 nb B VDD VNW p12 l=1.3e-07 w=3.2e-07
mX_g3_MXPA1 ba na VDD VNW p12 l=1.3e-07 w=8.6e-07
mXI10_MXPOEN S B ba VNW p12 l=1.3e-07 w=7.5e-07
mXI9_MXPOEN S nb na VNW p12 l=1.3e-07 w=7.5e-07
mX_g2_MXPA1 nco B VDD VNW p12 l=1.3e-07 w=3.7e-07
mX_g2_MXPA2 nco A VDD VNW p12 l=1.3e-07 w=3.7e-07
mX_g4_MXPA1 na A VDD VNW p12 l=1.3e-07 w=7.1e-07
mX_g4_MXPA1_2 na A VDD VNW p12 l=1.3e-07 w=7.1e-07
mX_g4_MXPA1_3 na A VDD VNW p12 l=1.3e-07 w=7.1e-07
mX_g0_MXPA1 CO nco VDD VNW p12 l=1.3e-07 w=8.7e-07
.ends


.SUBCKT ADDHX4MTR CO S VDD VNW VPW VSS A B
mX_g3_MXNA1 ba na VSS VPW n12 l=1.3e-07 w=7.1e-07
mX_g3_MXNA1_2 ba na VSS VPW n12 l=1.3e-07 w=7.1e-07
mX_g1_MXNA1 nb B VSS VPW n12 l=1.3e-07 w=5.2e-07
mXI10_MXNOE S nb ba VPW n12 l=1.3e-07 w=5.9e-07
mXI10_MXNOE_2 S nb ba VPW n12 l=1.3e-07 w=5.9e-07
mXI9_MXNOE S B na VPW n12 l=1.3e-07 w=5.9e-07
mXI9_MXNOE_2 S B na VPW n12 l=1.3e-07 w=5.9e-07
mX_g2_MXNA1 nco B X_g2_n1 VPW n12 l=1.3e-07 w=7.1e-07
mX_g2_MXNA2 X_g2_n1 A VSS VPW n12 l=1.3e-07 w=7.1e-07
mX_g4_MXNA1 na A VSS VPW n12 l=1.3e-07 w=7.1e-07
mX_g4_MXNA1_2 na A VSS VPW n12 l=1.3e-07 w=7.1e-07
mX_g4_MXNA1_3 na A VSS VPW n12 l=1.3e-07 w=7.1e-07
mX_g4_MXNA1_4 na A VSS VPW n12 l=1.3e-07 w=7.1e-07
mX_g4_MXNA1_5 na A VSS VPW n12 l=1.3e-07 w=6.6e-07
mX_g0_MXNA1 CO nco VSS VPW n12 l=1.3e-07 w=7.1e-07
mX_g0_MXNA1_2 CO nco VSS VPW n12 l=1.3e-07 w=7.1e-07
mX_g3_MXPA1 ba na VDD VNW p12 l=1.3e-07 w=8.7e-07
mX_g3_MXPA1_2 ba na VDD VNW p12 l=1.3e-07 w=8.7e-07
mX_g1_MXPA1 nb B VDD VNW p12 l=1.3e-07 w=6.3e-07
mXI10_MXPOEN S B ba VNW p12 l=1.3e-07 w=7.6e-07
mXI10_MXPOEN_2 S B ba VNW p12 l=1.3e-07 w=7.6e-07
mXI9_MXPOEN S nb na VNW p12 l=1.3e-07 w=7.6e-07
mXI9_MXPOEN_2 S nb na VNW p12 l=1.3e-07 w=7.6e-07
mX_g2_MXPA1 nco B VDD VNW p12 l=1.3e-07 w=7.4e-07
mX_g2_MXPA2 nco A VDD VNW p12 l=1.3e-07 w=7.4e-07
mX_g4_MXPA1 na A VDD VNW p12 l=1.3e-07 w=8.7e-07
mX_g4_MXPA1_2 na A VDD VNW p12 l=1.3e-07 w=8.7e-07
mX_g4_MXPA1_3 na A VDD VNW p12 l=1.3e-07 w=8.7e-07
mX_g4_MXPA1_4 na A VDD VNW p12 l=1.3e-07 w=8.7e-07
mX_g4_MXPA1_5 na A VDD VNW p12 l=1.3e-07 w=7.8e-07
mX_g0_MXPA1 CO nco VDD VNW p12 l=1.3e-07 w=8.7e-07
mX_g0_MXPA1_2 CO nco VDD VNW p12 l=1.3e-07 w=8.7e-07
.ends


.SUBCKT ADDHX8MTR CO S VDD VNW VPW VSS A B
mX_g3_MXNA1 ba na VSS VPW n12 l=1.3e-07 w=7.1e-07
mX_g3_MXNA1_2 ba na VSS VPW n12 l=1.3e-07 w=7.1e-07
mX_g3_MXNA1_3 ba na VSS VPW n12 l=1.3e-07 w=7.1e-07
mX_g3_MXNA1_4 ba na VSS VPW n12 l=1.3e-07 w=7.1e-07
mX_g1_MXNA1 nb B VSS VPW n12 l=1.3e-07 w=5.7e-07
mX_g1_MXNA1_2 nb B VSS VPW n12 l=1.3e-07 w=4.7e-07
mXI10_MXNOE S nb ba VPW n12 l=1.3e-07 w=6e-07
mXI10_MXNOE_2 S nb ba VPW n12 l=1.3e-07 w=6e-07
mXI10_MXNOE_3 S nb ba VPW n12 l=1.3e-07 w=6e-07
mXI10_MXNOE_4 S nb ba VPW n12 l=1.3e-07 w=6e-07
mXI9_MXNOE S B na VPW n12 l=1.3e-07 w=6e-07
mXI9_MXNOE_2 S B na VPW n12 l=1.3e-07 w=6e-07
mXI9_MXNOE_3 S B na VPW n12 l=1.3e-07 w=6e-07
mXI9_MXNOE_4 S B na VPW n12 l=1.3e-07 w=6e-07
mX_g2_MXNA1 nco B X_g2_n1 VPW n12 l=1.3e-07 w=7.1e-07
mX_g2_MXNA1_2 nco B X_g2_n1 VPW n12 l=1.3e-07 w=7.1e-07
mX_g2_MXNA2 X_g2_n1 A VSS VPW n12 l=1.3e-07 w=7.1e-07
mX_g2_MXNA2_2 X_g2_n1 A VSS VPW n12 l=1.3e-07 w=7.1e-07
mX_g4_MXNA1 na A VSS VPW n12 l=1.3e-07 w=6.9e-07
mX_g4_MXNA1_2 na A VSS VPW n12 l=1.3e-07 w=6.9e-07
mX_g4_MXNA1_3 na A VSS VPW n12 l=1.3e-07 w=6.8e-07
mX_g4_MXNA1_4 na A VSS VPW n12 l=1.3e-07 w=7e-07
mX_g4_MXNA1_5 na A VSS VPW n12 l=1.3e-07 w=7e-07
mX_g4_MXNA1_6 na A VSS VPW n12 l=1.3e-07 w=6.9e-07
mX_g4_MXNA1_7 na A VSS VPW n12 l=1.3e-07 w=6.9e-07
mX_g4_MXNA1_8 na A VSS VPW n12 l=1.3e-07 w=6.9e-07
mX_g4_MXNA1_9 na A VSS VPW n12 l=1.3e-07 w=6.9e-07
mX_g4_MXNA1_10 na A VSS VPW n12 l=1.3e-07 w=7.1e-07
mX_g0_MXNA1 CO nco VSS VPW n12 l=1.3e-07 w=7.1e-07
mX_g0_MXNA1_2 CO nco VSS VPW n12 l=1.3e-07 w=7.1e-07
mX_g0_MXNA1_3 CO nco VSS VPW n12 l=1.3e-07 w=7.1e-07
mX_g0_MXNA1_4 CO nco VSS VPW n12 l=1.3e-07 w=7.1e-07
mX_g3_MXPA1 ba na VDD VNW p12 l=1.3e-07 w=8.7e-07
mX_g3_MXPA1_2 ba na VDD VNW p12 l=1.3e-07 w=8.7e-07
mX_g3_MXPA1_3 ba na VDD VNW p12 l=1.3e-07 w=8.7e-07
mX_g3_MXPA1_4 ba na VDD VNW p12 l=1.3e-07 w=8.7e-07
mX_g1_MXPA1 nb B VDD VNW p12 l=1.3e-07 w=6.3e-07
mX_g1_MXPA1_2 nb B VDD VNW p12 l=1.3e-07 w=6.3e-07
mXI10_MXPOEN S B ba VNW p12 l=1.3e-07 w=6.1e-07
mXI10_MXPOEN_2 S B ba VNW p12 l=1.3e-07 w=6.1e-07
mXI10_MXPOEN_3 S B ba VNW p12 l=1.3e-07 w=6.1e-07
mXI10_MXPOEN_4 S B ba VNW p12 l=1.3e-07 w=6.1e-07
mXI9_MXPOEN S nb na VNW p12 l=1.3e-07 w=5.8e-07
mXI9_MXPOEN_2 S nb na VNW p12 l=1.3e-07 w=8.2e-07
mXI9_MXPOEN_3 S nb na VNW p12 l=1.3e-07 w=8.2e-07
mXI9_MXPOEN_4 S nb na VNW p12 l=1.3e-07 w=8.2e-07
mX_g2_MXPA1 nco B VDD VNW p12 l=1.3e-07 w=7.4e-07
mX_g2_MXPA1_2 nco B VDD VNW p12 l=1.3e-07 w=7.5e-07
mX_g2_MXPA2 nco A VDD VNW p12 l=1.3e-07 w=7.5e-07
mX_g2_MXPA2_2 nco A VDD VNW p12 l=1.3e-07 w=7.4e-07
mX_g4_MXPA1 na A VDD VNW p12 l=1.3e-07 w=8.5e-07
mX_g4_MXPA1_2 na A VDD VNW p12 l=1.3e-07 w=8.5e-07
mX_g4_MXPA1_3 na A VDD VNW p12 l=1.3e-07 w=8.5e-07
mX_g4_MXPA1_4 na A VDD VNW p12 l=1.3e-07 w=8.5e-07
mX_g4_MXPA1_5 na A VDD VNW p12 l=1.3e-07 w=8.5e-07
mX_g4_MXPA1_6 na A VDD VNW p12 l=1.3e-07 w=8.5e-07
mX_g4_MXPA1_7 na A VDD VNW p12 l=1.3e-07 w=8.5e-07
mX_g4_MXPA1_8 na A VDD VNW p12 l=1.3e-07 w=8.5e-07
mX_g4_MXPA1_9 na A VDD VNW p12 l=1.3e-07 w=8.6e-07
mX_g4_MXPA1_10 na A VDD VNW p12 l=1.3e-07 w=8.7e-07