
****Sub-Circuit for SDGRNHSV1, Wed Dec  8 11:21:18 CST 2010****
.SUBCKT SDGRNHSV1 CK D Q QN RN SE SI VDD VSS
MM41 net_0127 SE net_0123 VPW N12LL W=300.00n L=60.00n
MM43 net_0123 SI VSS VPW N12LL W=300.00n L=60.00n
MM46 SEN SE VSS VPW N12LL W=300.00n L=60.00n
MM52 QN ps VSS VPW N12LL W=290.00n L=60.00n
MM3 m c ps VPW N12LL W=350.00n L=60.00n
MM30 c cn VSS VPW N12LL W=300.00n L=60.00n
MM27 cn CK VSS VPW N12LL W=300.00n L=60.00n
MM38 net_0162 RN VSS VPW N12LL W=410.00n L=60.00n
MM24 net48 cn ps VPW N12LL W=200.00n L=60.00n
MM23 VSS s net48 VPW N12LL W=200.00n L=60.00n
MM19 Q s VSS VPW N12LL W=290.00n L=60.00n
MM17 s ps VSS VPW N12LL W=260.00n L=60.00n
MM12 net52 c pm VPW N12LL W=200.00n L=60.00n
MM11 VSS m net52 VPW N12LL W=200.00n L=60.00n
MM48 net_0127 cn pm VPW N12LL W=270.00n L=60.00n
MM40 net_0127 SEN net69 VPW N12LL W=410.00n L=60.00n
MM7 net69 D net_0162 VPW N12LL W=410.00n L=60.00n
MM0 m pm VSS VPW N12LL W=350.00n L=60.00n
MM44 net_0202 SI VDD VNW P12LL W=450.00n L=60.00n
MM45 net_0127 SEN net_0202 VNW P12LL W=450.00n L=60.00n
MM47 SEN SE VDD VNW P12LL W=450.00n L=60.00n
MM53 QN ps VDD VNW P12LL W=440.00n L=60.00n
MM50 net_0178 SE VDD VNW P12LL W=300.0n L=60.00n
MM51 net_0127 RN net_0178 VNW P12LL W=300.0n L=60.00n
MM4 m cn ps VNW P12LL W=530.00n L=60.00n
MM29 c cn VDD VNW P12LL W=450.00n L=60.00n
MM28 cn CK VDD VNW P12LL W=450.00n L=60.00n
MM37 net128 D VDD VNW P12LL W=530.00n L=60.00n
MM26 VDD s net109 VNW P12LL W=300.00n L=60.00n
MM25 net109 c ps VNW P12LL W=300.00n L=60.00n
MM20 Q s VDD VNW P12LL W=440.00n L=60.00n
MM18 s ps VDD VNW P12LL W=390.00n L=60.00n
MM14 net117 cn pm VNW P12LL W=300.00n L=60.00n
MM13 VDD m net117 VNW P12LL W=300.00n L=60.00n
MM49 net_0127 c pm VNW P12LL W=410.00n L=60.00n
MM39 net_0127 SE net128 VNW P12LL W=530.00n L=60.00n
MM1 m pm VDD VNW P12LL W=530.00n L=60.00n
.ENDS SDGRNHSV1
****Sub-Circuit for SDGRNHSV2, Wed Dec  8 11:21:18 CST 2010****
.SUBCKT SDGRNHSV2 CK D Q QN RN SE SI VDD VSS
MM41 net_0127 SE net_0123 VPW N12LL W=300.00n L=60.00n
MM43 net_0123 SI VSS VPW N12LL W=300.00n L=60.00n
MM46 SEN SE VSS VPW N12LL W=300.00n L=60.00n
MM52 QN ps VSS VPW N12LL W=430.00n L=60.00n
MM3 m c ps VPW N12LL W=360.00n L=60.00n
MM30 c cn VSS VPW N12LL W=340.00n L=60.00n
MM27 cn CK VSS VPW N12LL W=340.00n L=60.00n
MM38 net_0162 RN VSS VPW N12LL W=410.00n L=60.00n
MM24 net48 cn ps VPW N12LL W=200.00n L=60.00n
MM23 VSS s net48 VPW N12LL W=200.00n L=60.00n
MM19 Q s VSS VPW N12LL W=430.00n L=60.00n
MM17 s ps VSS VPW N12LL W=340.00n L=60.00n
MM12 net52 c pm VPW N12LL W=200.00n L=60.00n
MM11 VSS m net52 VPW N12LL W=200.00n L=60.00n
MM48 net_0127 cn pm VPW N12LL W=270.00n L=60.00n
MM40 net_0127 SEN net69 VPW N12LL W=410.00n L=60.00n
MM7 net69 D net_0162 VPW N12LL W=410.00n L=60.00n
MM0 m pm VSS VPW N12LL W=360.00n L=60.00n
MM44 net_0202 SI VDD VNW P12LL W=450.00n L=60.00n
MM45 net_0127 SEN net_0202 VNW P12LL W=450.00n L=60.00n
MM47 SEN SE VDD VNW P12LL W=450.00n L=60.00n
MM53 QN ps VDD VNW P12LL W=650.00n L=60.00n
MM50 net_0178 SE VDD VNW P12LL W=300.0n L=60.00n
MM51 net_0127 RN net_0178 VNW P12LL W=300.0n L=60.00n
MM4 m cn ps VNW P12LL W=540.00n L=60.00n
MM29 c cn VDD VNW P12LL W=500.00n L=60.00n
MM28 cn CK VDD VNW P12LL W=500.00n L=60.00n
MM37 net128 D VDD VNW P12LL W=530.00n L=60.00n
MM26 VDD s net109 VNW P12LL W=300.00n L=60.00n
MM25 net109 c ps VNW P12LL W=300.00n L=60.00n
MM20 Q s VDD VNW P12LL W=650.00n L=60.00n
MM18 s ps VDD VNW P12LL W=500.00n L=60.00n
MM14 net117 cn pm VNW P12LL W=300.00n L=60.00n
MM13 VDD m net117 VNW P12LL W=300.00n L=60.00n
MM49 net_0127 c pm VNW P12LL W=410.00n L=60.00n
MM39 net_0127 SE net128 VNW P12LL W=530.00n L=60.00n
MM1 m pm VDD VNW P12LL W=540.00n L=60.00n
.ENDS SDGRNHSV2
****Sub-Circuit for SDGRNHSV4, Fri Dec 10 10:21:28 CST 2010****
.SUBCKT SDGRNHSV4 CK D Q QN RN SE SI VDD VSS
MM41 net_0127 SE net_0123 VPW N12LL W=300.00n L=60.00n
MM43 net_0123 SI VSS VPW N12LL W=300.00n L=60.00n
MM46 SEN SE VSS VPW N12LL W=300.00n L=60.00n
MM52 QN ps VSS VPW N12LL W=860.00n L=60.00n
MM3 m c ps VPW N12LL W=390.00n L=60.00n
MM30 c cn VSS VPW N12LL W=290.00n L=60.00n
MM27 cn CK VSS VPW N12LL W=360.00n L=60.00n
MM38 net_0162 RN VSS VPW N12LL W=410.00n L=60.00n
MM24 net48 cn ps VPW N12LL W=200.00n L=60.00n
MM23 VSS s net48 VPW N12LL W=200.00n L=60.00n
MM19 Q s VSS VPW N12LL W=860.00n L=60.00n
MM17 s ps VSS VPW N12LL W=360.00n L=60.00n
MM12 net52 c pm VPW N12LL W=300.00n L=60.00n
MM11 VSS m net52 VPW N12LL W=300.00n L=60.00n
MM48 net_0127 cn pm VPW N12LL W=270.00n L=60.00n
MM40 net_0127 SEN net69 VPW N12LL W=410.00n L=60.00n
MM7 net69 D net_0162 VPW N12LL W=410.00n L=60.00n
MM0 m pm VSS VPW N12LL W=390.00n L=60.00n
MM44 net_0202 SI VDD VNW P12LL W=450.00n L=60.00n
MM45 net_0127 SEN net_0202 VNW P12LL W=450.00n L=60.00n
MM47 SEN SE VDD VNW P12LL W=450.00n L=60.00n
MM53 QN ps VDD VNW P12LL W=1.3u L=60.00n
MM50 net_0178 SE VDD VNW P12LL W=300.0n L=60.00n
MM51 net_0127 RN net_0178 VNW P12LL W=300.0n L=60.00n
MM4 m cn ps VNW P12LL W=540.00n L=60.00n
MM29 c cn VDD VNW P12LL W=440.00n L=60.00n
MM28 cn CK VDD VNW P12LL W=540.00n L=60.00n
MM37 net128 D VDD VNW P12LL W=530.00n L=60.00n
MM26 VDD s net109 VNW P12LL W=300.00n L=60.00n
MM25 net109 c ps VNW P12LL W=300.00n L=60.00n
MM20 Q s VDD VNW P12LL W=1.3u L=60.00n
MM18 s ps VDD VNW P12LL W=540.00n L=60.00n
MM14 net117 cn pm VNW P12LL W=450.00n L=60.00n
MM13 VDD m net117 VNW P12LL W=450.00n L=60.00n
MM49 net_0127 c pm VNW P12LL W=410.00n L=60.00n
MM39 net_0127 SE net128 VNW P12LL W=530.00n L=60.00n
MM1 m pm VDD VNW P12LL W=540.00n L=60.00n
.ENDS SDGRNHSV4
****Sub-Circuit for SDGRNQHSV1, Wed Dec  8 11:21:18 CST 2010****
.SUBCKT SDGRNQHSV1 CK D Q RN SE SI VDD VSS
MM41 net_0127 SE net_0123 VPW N12LL W=300.00n L=60.00n
MM43 net_0123 SI VSS VPW N12LL W=300.00n L=60.00n
MM46 SEN SE VSS VPW N12LL W=300.00n L=60.00n
MM3 m c ps VPW N12LL W=350.00n L=60.00n
MM30 c cn VSS VPW N12LL W=350.00n L=60.00n
MM27 cn CK VSS VPW N12LL W=300.00n L=60.00n
MM38 net_0162 RN VSS VPW N12LL W=380.00n L=60.00n
MM24 net48 cn ps VPW N12LL W=200.00n L=60.00n
MM23 VSS s net48 VPW N12LL W=200.00n L=60.00n
MM19 Q s VSS VPW N12LL W=290.00n L=60.00n
MM17 s ps VSS VPW N12LL W=260.00n L=60.00n
MM12 net52 c pm VPW N12LL W=300.00n L=60.00n
MM11 VSS m net52 VPW N12LL W=300.00n L=60.00n
MM48 net_0127 cn pm VPW N12LL W=250.00n L=60.00n
MM40 net_0127 SEN net69 VPW N12LL W=380.00n L=60.00n
MM7 net69 D net_0162 VPW N12LL W=380.00n L=60.00n
MM0 m pm VSS VPW N12LL W=350.00n L=60.00n
MM44 net_0202 SI VDD VNW P12LL W=450.00n L=60.00n
MM45 net_0127 SEN net_0202 VNW P12LL W=450.00n L=60.00n
MM47 SEN SE VDD VNW P12LL W=450.00n L=60.00n
MM50 net_0178 SE VDD VNW P12LL W=300.0n L=60.00n
MM51 net_0127 RN net_0178 VNW P12LL W=300.0n L=60.00n
MM4 m cn ps VNW P12LL W=530.00n L=60.00n
MM29 c cn VDD VNW P12LL W=530.00n L=60.00n
MM28 cn CK VDD VNW P12LL W=450.00n L=60.00n
MM37 net128 D VDD VNW P12LL W=500.00n L=60.00n
MM26 VDD s net109 VNW P12LL W=300.00n L=60.00n
MM25 net109 c ps VNW P12LL W=300.00n L=60.00n
MM20 Q s VDD VNW P12LL W=440.00n L=60.00n
MM18 s ps VDD VNW P12LL W=390.00n L=60.00n
MM14 net117 cn pm VNW P12LL W=450.00n L=60.00n
MM13 VDD m net117 VNW P12LL W=450.00n L=60.00n
MM49 net_0127 c pm VNW P12LL W=380.00n L=60.00n
MM39 net_0127 SE net128 VNW P12LL W=500.00n L=60.00n
MM1 m pm VDD VNW P12LL W=530.00n L=60.00n
.ENDS SDGRNQHSV1
****Sub-Circuit for SDGRNQHSV2, Wed Dec  8 11:21:18 CST 2010****
.SUBCKT SDGRNQHSV2 CK D Q RN SE SI VDD VSS
MM41 net_0127 SE net_0123 VPW N12LL W=300.00n L=60.00n
MM43 net_0123 SI VSS VPW N12LL W=300.00n L=60.00n
MM46 SEN SE VSS VPW N12LL W=300.00n L=60.00n
MM3 m c ps VPW N12LL W=360.00n L=60.00n
MM30 c cn VSS VPW N12LL W=330.00n L=60.00n
MM27 cn CK VSS VPW N12LL W=330.00n L=60.00n
MM38 net_0162 RN VSS VPW N12LL W=380.00n L=60.00n
MM24 net48 cn ps VPW N12LL W=200.00n L=60.00n
MM23 VSS s net48 VPW N12LL W=200.00n L=60.00n
MM19 Q s VSS VPW N12LL W=430.00n L=60.00n
MM17 s ps VSS VPW N12LL W=340.00n L=60.00n
MM12 net52 c pm VPW N12LL W=300.00n L=60.00n
MM11 VSS m net52 VPW N12LL W=300.00n L=60.00n
MM48 net_0127 cn pm VPW N12LL W=250.00n L=60.00n
MM40 net_0127 SEN net69 VPW N12LL W=380.00n L=60.00n
MM7 net69 D net_0162 VPW N12LL W=380.00n L=60.00n
MM0 m pm VSS VPW N12LL W=360.00n L=60.00n
MM44 net_0202 SI VDD VNW P12LL W=450.00n L=60.00n
MM45 net_0127 SEN net_0202 VNW P12LL W=450.00n L=60.00n
MM47 SEN SE VDD VNW P12LL W=450.00n L=60.00n
MM50 net_0178 SE VDD VNW P12LL W=300.0n L=60.00n
MM51 net_0127 RN net_0178 VNW P12LL W=300.0n L=60.00n
MM4 m cn ps VNW P12LL W=540.00n L=60.00n
MM29 c cn VDD VNW P12LL W=500.00n L=60.00n
MM28 cn CK VDD VNW P12LL W=500.00n L=60.00n
MM37 net128 D VDD VNW P12LL W=500.00n L=60.00n
MM26 VDD s net109 VNW P12LL W=300.00n L=60.00n
MM25 net109 c ps VNW P12LL W=300.00n L=60.00n
MM20 Q s VDD VNW P12LL W=650.00n L=60.00n
MM18 s ps VDD VNW P12LL W=500.00n L=60.00n
MM14 net117 cn pm VNW P12LL W=450.00n L=60.00n
MM13 VDD m net117 VNW P12LL W=450.00n L=60.00n
MM49 net_0127 c pm VNW P12LL W=380.00n L=60.00n
MM39 net_0127 SE net128 VNW P12LL W=500.00n L=60.00n
MM1 m pm VDD VNW P12LL W=540.00n L=60.00n
.ENDS SDGRNQHSV2
****Sub-Circuit for SDGRNQHSV4, Fri Dec 10 10:21:29 CST 2010****
.SUBCKT SDGRNQHSV4 CK D Q RN SE SI VDD VSS
MM41 net_0127 SE net_0123 VPW N12LL W=300.00n L=60.00n
MM43 net_0123 SI VSS VPW N12LL W=300.00n L=60.00n
MM46 SEN SE VSS VPW N12LL W=300.00n L=60.00n
MM3 m c ps VPW N12LL W=370.00n L=60.00n
MM30 c cn VSS VPW N12LL W=290.00n L=60.00n
MM27 cn CK VSS VPW N12LL W=360.00n L=60.00n
MM38 net_0162 RN VSS VPW N12LL W=380.00n L=60.00n
MM24 net48 cn ps VPW N12LL W=200.00n L=60.00n
MM23 VSS s net48 VPW N12LL W=200.00n L=60.00n
MM19 Q s VSS VPW N12LL W=860.00n L=60.00n
MM17 s ps VSS VPW N12LL W=360.00n L=60.00n
MM12 net52 c pm VPW N12LL W=300.00n L=60.00n
MM11 VSS m net52 VPW N12LL W=300.00n L=60.00n
MM48 net_0127 cn pm VPW N12LL W=250.00n L=60.00n
MM40 net_0127 SEN net69 VPW N12LL W=380.00n L=60.00n
MM7 net69 D net_0162 VPW N12LL W=380.00n L=60.00n
MM0 m pm VSS VPW N12LL W=390.00n L=60.00n
MM44 net_0202 SI VDD VNW P12LL W=450.00n L=60.00n
MM45 net_0127 SEN net_0202 VNW P12LL W=450.00n L=60.00n
MM47 SEN SE VDD VNW P12LL W=450.00n L=60.00n
MM50 net_0178 SE VDD VNW P12LL W=300.0n L=60.00n
MM51 net_0127 RN net_0178 VNW P12LL W=300.0n L=60.00n
MM4 m cn ps VNW P12LL W=540.00n L=60.00n
MM29 c cn VDD VNW P12LL W=440.00n L=60.00n
MM28 cn CK VDD VNW P12LL W=540.00n L=60.00n
MM37 net128 D VDD VNW P12LL W=500.00n L=60.00n
MM26 VDD s net109 VNW P12LL W=300.00n L=60.00n
MM25 net109 c ps VNW P12LL W=300.00n L=60.00n
MM20 Q s VDD VNW P12LL W=1.3u L=60.00n
MM18 s ps VDD VNW P12LL W=540.00n L=60.00n
MM14 net117 cn pm VNW P12LL W=450.00n L=60.00n
MM13 VDD m net117 VNW P12LL W=450.00n L=60.00n
MM49 net_0127 c pm VNW P12LL W=360.00n L=60.00n
MM39 net_0127 SE net128 VNW P12LL W=500.00n L=60.00n
MM1 m pm VDD VNW P12LL W=580.00n L=60.00n
.ENDS SDGRNQHSV4
****Sub-Circuit for SDGRSNHSV1, Wed Dec  8 11:21:18 CST 2010****
.SUBCKT SDGRSNHSV1 CK D Q QN RN SE SI SN VDD VSS
MM45 net0370 SE net201 VPW N12LL W=300.00n L=60.00n
MM46 net201 SI VSS VPW N12LL W=300.00n L=60.00n
MM47 net0172 RN VSS VPW N12LL W=390.00n L=60.00n
MM48 net0370 SEN net213 VPW N12LL W=340.00n L=60.00n
MM49 net213 D net205 VPW N12LL W=390.00n L=60.00n
MM43 SNN SN VSS VPW N12LL W=300.00n L=60.00n
MM39 QN OS VSS VPW N12LL W=290.00n L=60.00n
MM62 OS c net181 VPW N12LL W=260.00n L=60.00n
MM63 net181 S VSS VPW N12LL W=260.00n L=60.00n
MM61 M cn net193 VPW N12LL W=300.00n L=60.00n
MM58 SEN SE VSS VPW N12LL W=300.00n L=60.00n
MM70 net205 SN net0172 VPW N12LL W=390.00n L=60.00n
MM60 net193 net0370 VSS VPW N12LL W=300.00n L=60.00n
MM30 c cn VSS VPW N12LL W=230.00n L=60.00n
MM27 cn CK VSS VPW N12LL W=230.00n L=60.00n
MM24 net172 cn OS VPW N12LL W=200.00n L=60.00n
MM23 VSS NET64 net172 VPW N12LL W=200.00n L=60.00n
MM69 net213 SNN net0172 VPW N12LL W=300.00n L=60.00n
MM19 Q NET64 VSS VPW N12LL W=290.00n L=60.00n
MM17 NET64 OS VSS VPW N12LL W=260.00n L=60.00n
MM12 net240 c M VPW N12LL W=200.00n L=60.00n
MM11 VSS S net240 VPW N12LL W=200.00n L=60.00n
MM0 S M VSS VPW N12LL W=300.00n L=60.00n
MM66 net0418 SNN net296 VNW P12LL W=590.00n L=60.00n
MM50 net288 SI VDD VNW P12LL W=420.00n L=60.00n
MM51 net0370 SEN net288 VNW P12LL W=420.00n L=60.00n
MM52 net296 D VDD VNW P12LL W=590.00n L=60.00n
MM53 net0370 SE net0418 VNW P12LL W=590.00n L=60.00n
MM44 SNN SN VDD VNW P12LL W=450.00n L=60.00n
MM40 QN OS VDD VNW P12LL W=440.00n L=60.00n
MM64 net268 S VDD VNW P12LL W=390.00n L=60.00n
MM65 OS cn net268 VNW P12LL W=390.00n L=60.00n
MM67 net0418 RN VDD VNW P12LL W=450.00n L=60.00n
MM59 SEN SE VDD VNW P12LL W=450.00n L=60.00n
MM29 c cn VDD VNW P12LL W=360.00n L=60.00n
MM28 cn CK VDD VNW P12LL W=360.00n L=60.00n
MM26 VDD NET64 net253 VNW P12LL W=300.00n L=60.00n
MM25 net253 c OS VNW P12LL W=300.00n L=60.00n
MM20 Q NET64 VDD VNW P12LL W=440.00n L=60.00n
MM18 NET64 OS VDD VNW P12LL W=390.00n L=60.00n
MM14 net313 cn M VNW P12LL W=300.00n L=60.00n
MM13 VDD S net313 VNW P12LL W=300.00n L=60.00n
MM55 net280 net0370 VDD VNW P12LL W=450.00n L=60.00n
MM56 M c net280 VNW P12LL W=450.00n L=60.00n
MM1 S M VDD VNW P12LL W=450.00n L=60.00n
.ENDS SDGRSNHSV1
****Sub-Circuit for SDGRSNHSV2, Wed Dec  8 11:21:18 CST 2010****
.SUBCKT SDGRSNHSV2 CK D Q QN RN SE SI SN VDD VSS
MM45 net0370 SE net201 VPW N12LL W=270.00n L=60.00n
MM46 net201 SI VSS VPW N12LL W=270.00n L=60.00n
MM47 net0172 RN VSS VPW N12LL W=350.00n L=60.00n
MM48 net0370 SEN net213 VPW N12LL W=350.00n L=60.00n
MM49 net213 D net205 VPW N12LL W=350.00n L=60.00n
MM43 SNN SN VSS VPW N12LL W=290.00n L=60.00n
MM39 QN OS VSS VPW N12LL W=430.00n L=60.00n
MM62 OS c net181 VPW N12LL W=400.00n L=60.00n
MM63 net181 S VSS VPW N12LL W=400.00n L=60.00n
MM61 M cn net193 VPW N12LL W=260.00n L=60.00n
MM58 SEN SE VSS VPW N12LL W=290.00n L=60.00n
MM70 net205 SN net0172 VPW N12LL W=350.00n L=60.00n
MM60 net193 net0370 VSS VPW N12LL W=260.00n L=60.00n
MM30 c cn VSS VPW N12LL W=200.00n L=60.00n
MM27 cn CK VSS VPW N12LL W=200.00n L=60.00n
MM24 net172 cn OS VPW N12LL W=200.00n L=60.00n
MM23 VSS NET64 net172 VPW N12LL W=200.00n L=60.00n
MM69 net213 SNN net0172 VPW N12LL W=300.00n L=60.00n
MM19 Q NET64 VSS VPW N12LL W=430.00n L=60.00n
MM17 NET64 OS VSS VPW N12LL W=300.00n L=60.00n
MM12 net240 c M VPW N12LL W=200.00n L=60.00n
MM11 VSS S net240 VPW N12LL W=200.00n L=60.00n
MM0 S M VSS VPW N12LL W=360.00n L=60.00n
MM66 net0418 SNN net296 VNW P12LL W=590.00n L=60.00n
MM50 net288 SI VDD VNW P12LL W=410.00n L=60.00n
MM51 net0370 SEN net288 VNW P12LL W=410.00n L=60.00n
MM52 net296 D VDD VNW P12LL W=590.00n L=60.00n
MM53 net0370 SE net0418 VNW P12LL W=590.00n L=60.00n
MM44 SNN SN VDD VNW P12LL W=440.00n L=60.00n
MM40 QN OS VDD VNW P12LL W=650.00n L=60.00n
MM64 net268 S VDD VNW P12LL W=480.00n L=60.00n
MM65 OS cn net268 VNW P12LL W=480.00n L=60.00n
MM67 net0418 RN VDD VNW P12LL W=400.00n L=60.00n
MM59 SEN SE VDD VNW P12LL W=440.00n L=60.00n
MM29 c cn VDD VNW P12LL W=300.00n L=60.00n
MM28 cn CK VDD VNW P12LL W=300.00n L=60.00n
MM26 VDD NET64 net253 VNW P12LL W=300.00n L=60.00n
MM25 net253 c OS VNW P12LL W=300.00n L=60.00n
MM20 Q NET64 VDD VNW P12LL W=650.00n L=60.00n
MM18 NET64 OS VDD VNW P12LL W=450.00n L=60.00n
MM14 net313 cn M VNW P12LL W=300.00n L=60.00n
MM13 VDD S net313 VNW P12LL W=300.00n L=60.00n
MM55 net280 net0370 VDD VNW P12LL W=390.00n L=60.00n
MM56 M c net280 VNW P12LL W=390.00n L=60.00n
MM1 S M VDD VNW P12LL W=540.00n L=60.00n
.ENDS SDGRSNHSV2
****Sub-Circuit for SDGRSNHSV4, Wed Dec  8 11:21:18 CST 2010****
.SUBCKT SDGRSNHSV4 CK D Q QN RN SE SI SN VDD VSS
MM45 net0370 SE net201 VPW N12LL W=300.00n L=60.00n
MM46 net201 SI VSS VPW N12LL W=300.00n L=60.00n
MM47 net0172 RN VSS VPW N12LL W=350.00n L=60.00n
MM48 net0370 SEN net213 VPW N12LL W=350.00n L=60.00n
MM49 net213 D net205 VPW N12LL W=350.00n L=60.00n
MM43 SNN SN VSS VPW N12LL W=290.00n L=60.00n
MM39 QN OS VSS VPW N12LL W=860.00n L=60.00n
MM62 OS c net181 VPW N12LL W=450.00n L=60.00n
MM63 net181 S VSS VPW N12LL W=450.00n L=60.00n
MM61 M cn net193 VPW N12LL W=260.00n L=60.00n
MM58 SEN SE VSS VPW N12LL W=290.00n L=60.00n
MM70 net205 SN net0172 VPW N12LL W=350.00n L=60.00n
MM60 net193 net0370 VSS VPW N12LL W=260.00n L=60.00n
MM30 c cn VSS VPW N12LL W=260.00n L=60.00n
MM27 cn CK VSS VPW N12LL W=200.00n L=60.00n
MM24 net172 cn OS VPW N12LL W=200.00n L=60.00n
MM23 VSS NET64 net172 VPW N12LL W=200.00n L=60.00n
MM69 net213 SNN net0172 VPW N12LL W=300.00n L=60.00n
MM19 Q NET64 VSS VPW N12LL W=860.00n L=60.00n
MM17 NET64 OS VSS VPW N12LL W=360.00n L=60.00n
MM12 net240 c M VPW N12LL W=200.00n L=60.00n
MM11 VSS S net240 VPW N12LL W=200.00n L=60.00n
MM0 S M VSS VPW N12LL W=360.00n L=60.00n
MM66 net0418 SNN net296 VNW P12LL W=590.00n L=60.00n
MM50 net288 SI VDD VNW P12LL W=450.00n L=60.00n
MM51 net0370 SEN net288 VNW P12LL W=450.00n L=60.00n
MM52 net296 D VDD VNW P12LL W=590.00n L=60.00n
MM53 net0370 SE net0418 VNW P12LL W=590.00n L=60.00n
MM44 SNN SN VDD VNW P12LL W=440.00n L=60.00n
MM40 QN OS VDD VNW P12LL W=1.3u L=60.00n
MM64 net268 S VDD VNW P12LL W=570.00n L=60.00n
MM65 OS cn net268 VNW P12LL W=570.00n L=60.00n
MM67 net0418 RN VDD VNW P12LL W=400.00n L=60.00n
MM59 SEN SE VDD VNW P12LL W=440.00n L=60.00n
MM29 c cn VDD VNW P12LL W=390.00n L=60.00n
MM28 cn CK VDD VNW P12LL W=300.00n L=60.00n
MM26 VDD NET64 net253 VNW P12LL W=300.00n L=60.00n
MM25 net253 c OS VNW P12LL W=300.00n L=60.00n
MM20 Q NET64 VDD VNW P12LL W=1.3u L=60.00n
MM18 NET64 OS VDD VNW P12LL W=540.00n L=60.00n
MM14 net313 cn M VNW P12LL W=300.00n L=60.00n
MM13 VDD S net313 VNW P12LL W=300.00n L=60.00n
MM55 net280 net0370 VDD VNW P12LL W=390.00n L=60.00n
MM56 M c net280 VNW P12LL W=390.00n L=60.00n
MM1 S M VDD VNW P12LL W=540.00n L=60.00n
.ENDS SDGRSNHSV4
****Sub-Circuit for SDGSNHSV1, Wed Dec  8 11:21:18 CST 2010****
.SUBCKT SDGSNHSV1 CK D Q QN SE SI SN VDD VSS
MM39 QN PS VSS VPW N12LL W=290.00n L=60.00n
MM45 N74 SE net0128 VPW N12LL W=200.00n L=60.00n
MM46 net0128 SI VSS VPW N12LL W=200.00n L=60.00n
MM48 N74 cn PM VPW N12LL W=270.00n L=60.00n
MM43 SNN SN VSS VPW N12LL W=200.00n L=60.00n
MM52 SEN SE VSS VPW N12LL W=200.00n L=60.00n
MM3 M c PS VPW N12LL W=270.00n L=60.00n
MM42 net69 SNN VSS VPW N12LL W=200.00n L=60.00n
MM30 c cn VSS VPW N12LL W=250.00n L=60.00n
MM27 cn CK VSS VPW N12LL W=200.00n L=60.00n
MM24 net48 cn PS VPW N12LL W=200.00n L=60.00n
MM23 VSS S net48 VPW N12LL W=200.00n L=60.00n
MM19 Q S VSS VPW N12LL W=290.00n L=60.00n
MM17 S PS VSS VPW N12LL W=240.00n L=60.00n
MM12 net52 c PM VPW N12LL W=200.00n L=60.00n
MM11 VSS M net52 VPW N12LL W=200.00n L=60.00n
MM9 N74 SEN net69 VPW N12LL W=250.00n L=60.00n
MM7 net69 D VSS VPW N12LL W=250.00n L=60.00n
MM0 M PM VSS VPW N12LL W=270.00n L=60.00n
MM41 net_0231 SNN VDD VNW P12LL W=400.00n L=60.00n
MM40 QN PS VDD VNW P12LL W=440.00n L=60.00n
MM44 SNN SN VDD VNW P12LL W=300.00n L=60.00n
MM50 net0207 SI VDD VNW P12LL W=300.00n L=60.00n
MM51 N74 SEN net0207 VNW P12LL W=300.00n L=60.00n
MM54 N74 c PM VNW P12LL W=400.00n L=60.00n
MM4 M cn PS VNW P12LL W=400.00n L=60.00n
MM29 c cn VDD VNW P12LL W=380.00n L=60.00n
MM28 cn CK VDD VNW P12LL W=300.00n L=60.00n
MM26 VDD S net109 VNW P12LL W=300.00n L=60.00n
MM25 net109 c PS VNW P12LL W=300.00n L=60.00n
MM20 Q S VDD VNW P12LL W=440.00n L=60.00n
MM18 S PS VDD VNW P12LL W=360.00n L=60.00n
MM14 net117 cn PM VNW P12LL W=300.00n L=60.00n
MM13 VDD M net117 VNW P12LL W=300.00n L=60.00n
MM10 N74 SE net128 VNW P12LL W=400.00n L=60.00n
MM8 net128 D net_0231 VNW P12LL W=400.00n L=60.00n
MM56 SEN SE VDD VNW P12LL W=300.00n L=60.00n
MM1 M PM VDD VNW P12LL W=400.00n L=60.00n
.ENDS SDGSNHSV1
****Sub-Circuit for SDGSNHSV2, Wed Dec  8 11:21:18 CST 2010****
.SUBCKT SDGSNHSV2 CK D Q QN SE SI SN VDD VSS
MM39 QN PS VSS VPW N12LL W=430.00n L=60.00n
MM45 N74 SE net0128 VPW N12LL W=200.00n L=60.00n
MM46 net0128 SI VSS VPW N12LL W=200.00n L=60.00n
MM48 N74 cn PM VPW N12LL W=360.00n L=60.00n
MM43 SNN SN VSS VPW N12LL W=200.00n L=60.00n
MM52 SEN SE VSS VPW N12LL W=200.00n L=60.00n
MM3 M c PS VPW N12LL W=390.00n L=60.00n
MM42 net69 SNN VSS VPW N12LL W=200.00n L=60.00n
MM30 c cn VSS VPW N12LL W=380.00n L=60.00n
MM27 cn CK VSS VPW N12LL W=290.00n L=60.00n
MM24 net48 cn PS VPW N12LL W=200.00n L=60.00n
MM23 VSS S net48 VPW N12LL W=200.00n L=60.00n
MM19 Q S VSS VPW N12LL W=430.00n L=60.00n
MM17 S PS VSS VPW N12LL W=290.00n L=60.00n
MM12 net52 c PM VPW N12LL W=200.00n L=60.00n
MM11 VSS M net52 VPW N12LL W=200.00n L=60.00n
MM9 N74 SEN net69 VPW N12LL W=380.00n L=60.00n
MM7 net69 D VSS VPW N12LL W=380.00n L=60.00n
MM0 M PM VSS VPW N12LL W=390.00n L=60.00n
MM41 net_0231 SNN VDD VNW P12LL W=600.0n L=60.00n
MM40 QN PS VDD VNW P12LL W=650.00n L=60.00n
MM44 SNN SN VDD VNW P12LL W=300.00n L=60.00n
MM50 net0207 SI VDD VNW P12LL W=300.00n L=60.00n
MM51 N74 SEN net0207 VNW P12LL W=300.00n L=60.00n
MM54 N74 c PM VNW P12LL W=540.00n L=60.00n
MM4 M cn PS VNW P12LL W=580.00n L=60.00n
MM29 c cn VDD VNW P12LL W=570.00n L=60.00n
MM28 cn CK VDD VNW P12LL W=440.00n L=60.00n
MM26 VDD S net109 VNW P12LL W=300.00n L=60.00n
MM25 net109 c PS VNW P12LL W=300.00n L=60.00n
MM20 Q S VDD VNW P12LL W=650.00n L=60.00n
MM18 S PS VDD VNW P12LL W=440.00n L=60.00n
MM14 net117 cn PM VNW P12LL W=300.00n L=60.00n
MM13 VDD M net117 VNW P12LL W=300.00n L=60.00n
MM10 N74 SE net128 VNW P12LL W=600.0n L=60.00n
MM8 net128 D net_0231 VNW P12LL W=600.0n L=60.00n
MM56 SEN SE VDD VNW P12LL W=300.00n L=60.00n
MM1 M PM VDD VNW P12LL W=580.00n L=60.00n
.ENDS SDGSNHSV2
****Sub-Circuit for SDGSNHSV4, Wed Dec  8 11:21:18 CST 2010****
.SUBCKT SDGSNHSV4 CK D Q QN SE SI SN VDD VSS
MM39 QN PS VSS VPW N12LL W=860.00n L=60.00n
MM45 N74 SE net0128 VPW N12LL W=200.00n L=60.00n
MM46 net0128 SI VSS VPW N12LL W=200.00n L=60.00n
MM48 N74 cn PM VPW N12LL W=400.00n L=60.00n
MM43 SNN SN VSS VPW N12LL W=200.00n L=60.00n
MM52 SEN SE VSS VPW N12LL W=200.00n L=60.00n
MM3 M c PS VPW N12LL W=430.00n L=60.00n
MM42 net69 SNN VSS VPW N12LL W=250.00n L=60.00n
MM30 c cn VSS VPW N12LL W=430.00n L=60.00n
MM27 cn CK VSS VPW N12LL W=290.00n L=60.00n
MM24 net48 cn PS VPW N12LL W=200.00n L=60.00n
MM23 VSS S net48 VPW N12LL W=200.00n L=60.00n
MM19 Q S VSS VPW N12LL W=860.00n L=60.00n
MM17 S PS VSS VPW N12LL W=360.00n L=60.00n
MM12 net52 c PM VPW N12LL W=200.00n L=60.00n
MM11 VSS M net52 VPW N12LL W=200.00n L=60.00n
MM9 N74 SEN net69 VPW N12LL W=430.00n L=60.00n
MM7 net69 D VSS VPW N12LL W=430.00n L=60.00n
MM0 M PM VSS VPW N12LL W=430.00n L=60.00n
MM41 net_0231 SNN VDD VNW P12LL W=650.00n L=60.00n
MM40 QN PS VDD VNW P12LL W=1.3u L=60.00n
MM44 SNN SN VDD VNW P12LL W=300.00n L=60.00n
MM50 net0207 SI VDD VNW P12LL W=300.00n L=60.00n
MM51 N74 SEN net0207 VNW P12LL W=300.00n L=60.00n
MM54 N74 c PM VNW P12LL W=600.0n L=60.00n
MM4 M cn PS VNW P12LL W=650.00n L=60.00n
MM29 c cn VDD VNW P12LL W=650.00n L=60.00n
MM28 cn CK VDD VNW P12LL W=440.00n L=60.00n
MM26 VDD S net109 VNW P12LL W=300.00n L=60.00n
MM25 net109 c PS VNW P12LL W=300.00n L=60.00n
MM20 Q S VDD VNW P12LL W=1.3u L=60.00n
MM18 S PS VDD VNW P12LL W=540.00n L=60.00n
MM14 net117 cn PM VNW P12LL W=300.00n L=60.00n
MM13 VDD M net117 VNW P12LL W=300.00n L=60.00n
MM10 N74 SE net128 VNW P12LL W=650.00n L=60.00n
MM8 net128 D net_0231 VNW P12LL W=650.00n L=60.00n
MM56 SEN SE VDD VNW P12LL W=300.00n L=60.00n
MM1 M PM VDD VNW P12LL W=650.00n L=60.00n
.ENDS SDGSNHSV4
****Sub-Circuit for SDHSV1, Wed Dec  8 11:21:18 CST 2010****
.SUBCKT SDHSV1 CK D Q QN SE SI VDD VSS
MM52 QN s VSS VPW N12LL W=290.00n L=60.00n
MM46 net_0107 SI VSS VPW N12LL W=200.00n L=60.00n
MM45 net_0163 SE net_0107 VPW N12LL W=200.00n L=60.00n
MM39 ps c net_099 VPW N12LL W=280.00n L=60.00n
MM48 SEN SE VSS VPW N12LL W=200.00n L=60.00n
MM40 net_099 m VSS VPW N12LL W=280.00n L=60.00n
MM43 net_0123 SEN VSS VPW N12LL W=300.00n L=60.00n
MM30 c cn VSS VPW N12LL W=290.00n L=60.00n
MM27 cn CK VSS VPW N12LL W=200.00n L=60.00n
MM24 net48 cn ps VPW N12LL W=200.00n L=60.00n
MM23 VSS s net48 VPW N12LL W=200.00n L=60.00n
MM19 Q ps VSS VPW N12LL W=290.00n L=60.00n
MM17 s ps VSS VPW N12LL W=200.00n L=60.00n
MM12 net52 c net_0159 VPW N12LL W=200.00n L=60.00n
MM11 VSS m net52 VPW N12LL W=200.00n L=60.00n
MM9 net_0159 cn net_0163 VPW N12LL W=300.00n L=60.00n
MM42 net_0163 D net_0123 VPW N12LL W=300.00n L=60.00n
MM0 m net_0159 VSS VPW N12LL W=290.00n L=60.00n
MM53 QN s VDD VNW P12LL W=440.00n L=60.00n
MM51 net128 SEN net_0174 VNW P12LL W=300.00n L=60.00n
MM50 net_0174 SI VDD VNW P12LL W=300.00n L=60.00n
MM38 ps cn net_0158 VNW P12LL W=300.00n L=60.00n
MM41 net_0158 m VDD VNW P12LL W=300.00n L=60.00n
MM49 SEN SE VDD VNW P12LL W=300.00n L=60.00n
MM29 c cn VDD VNW P12LL W=440.00n L=60.00n
MM28 cn CK VDD VNW P12LL W=300.00n L=60.00n
MM26 VDD s net109 VNW P12LL W=300.00n L=60.00n
MM25 net109 c ps VNW P12LL W=300.00n L=60.00n
MM20 Q ps VDD VNW P12LL W=440.00n L=60.00n
MM18 s ps VDD VNW P12LL W=300.00n L=60.00n
MM14 net117 cn net_0159 VNW P12LL W=300.00n L=60.00n
MM13 VDD m net117 VNW P12LL W=300.00n L=60.00n
MM10 net_0159 c net128 VNW P12LL W=450.00n L=60.00n
MM44 net_0230 SE VDD VNW P12LL W=450.00n L=60.00n
MM47 net128 D net_0230 VNW P12LL W=450.00n L=60.00n
MM1 m net_0159 VDD VNW P12LL W=440.00n L=60.00n
.ENDS SDHSV1
****Sub-Circuit for SDHSV2, Wed Dec  8 11:21:18 CST 2010****
.SUBCKT SDHSV2 CK D Q QN SE SI VDD VSS
MM52 QN s VSS VPW N12LL W=430.00n L=60.00n
MM46 net_0107 SI VSS VPW N12LL W=200.00n L=60.00n
MM45 net_0163 SE net_0107 VPW N12LL W=200.00n L=60.00n
MM39 ps c net_099 VPW N12LL W=400.00n L=60.00n
MM48 SEN SE VSS VPW N12LL W=200.00n L=60.00n
MM40 net_099 m VSS VPW N12LL W=400.00n L=60.00n
MM43 net_0123 SEN VSS VPW N12LL W=300.00n L=60.00n
MM30 c cn VSS VPW N12LL W=290.00n L=60.00n
MM27 cn CK VSS VPW N12LL W=200.00n L=60.00n
MM24 net48 cn ps VPW N12LL W=200.00n L=60.00n
MM23 VSS s net48 VPW N12LL W=200.00n L=60.00n
MM19 Q ps VSS VPW N12LL W=430.00n L=60.00n
MM17 s ps VSS VPW N12LL W=200.00n L=60.00n
MM12 net52 c net_0159 VPW N12LL W=200.00n L=60.00n
MM11 VSS m net52 VPW N12LL W=200.00n L=60.00n
MM9 net_0159 cn net_0163 VPW N12LL W=300.00n L=60.00n
MM42 net_0163 D net_0123 VPW N12LL W=300.00n L=60.00n
MM0 m net_0159 VSS VPW N12LL W=430.00n L=60.00n
MM53 QN s VDD VNW P12LL W=650.00n L=60.00n
MM51 net128 SEN net_0174 VNW P12LL W=300.00n L=60.00n
MM50 net_0174 SI VDD VNW P12LL W=300.00n L=60.00n
MM38 ps cn net_0158 VNW P12LL W=440.00n L=60.00n
MM41 net_0158 m VDD VNW P12LL W=440.00n L=60.00n
MM49 SEN SE VDD VNW P12LL W=300.00n L=60.00n
MM29 c cn VDD VNW P12LL W=440.00n L=60.00n
MM28 cn CK VDD VNW P12LL W=300.00n L=60.00n
MM26 VDD s net109 VNW P12LL W=300.00n L=60.00n
MM25 net109 c ps VNW P12LL W=300.00n L=60.00n
MM20 Q ps VDD VNW P12LL W=650.00n L=60.00n
MM18 s ps VDD VNW P12LL W=300.00n L=60.00n
MM14 net117 cn net_0159 VNW P12LL W=300.00n L=60.00n
MM13 VDD m net117 VNW P12LL W=300.00n L=60.00n
MM10 net_0159 c net128 VNW P12LL W=450.00n L=60.00n
MM44 net_0230 SE VDD VNW P12LL W=450.00n L=60.00n
MM47 net128 D net_0230 VNW P12LL W=450.00n L=60.00n
MM1 m net_0159 VDD VNW P12LL W=650.00n L=60.00n
.ENDS SDHSV2
****Sub-Circuit for SDHSV4, Wed Dec  8 11:21:18 CST 2010****
.SUBCKT SDHSV4 CK D Q QN SE SI VDD VSS
MM52 QN s VSS VPW N12LL W=860.00n L=60.00n
MM46 net_0107 SI VSS VPW N12LL W=200.00n L=60.00n
MM45 net_0163 SE net_0107 VPW N12LL W=200.00n L=60.00n
MM39 ps c net_099 VPW N12LL W=420.00n L=60.00n
MM48 SEN SE VSS VPW N12LL W=200.00n L=60.00n
MM40 net_099 m VSS VPW N12LL W=430.00n L=60.00n
MM43 net_0123 SEN VSS VPW N12LL W=300.00n L=60.00n
MM30 c cn VSS VPW N12LL W=290.00n L=60.00n
MM27 cn CK VSS VPW N12LL W=200.00n L=60.00n
MM24 net48 cn ps VPW N12LL W=300.00n L=60.00n
MM23 VSS s net48 VPW N12LL W=300.00n L=60.00n
MM19 Q ps VSS VPW N12LL W=860.00n L=60.00n
MM17 s ps VSS VPW N12LL W=290.00n L=60.00n
MM12 net52 c net_0159 VPW N12LL W=200.00n L=60.00n
MM11 VSS m net52 VPW N12LL W=200.00n L=60.00n
MM9 net_0159 cn net_0163 VPW N12LL W=300.00n L=60.00n
MM42 net_0163 D net_0123 VPW N12LL W=300.00n L=60.00n
MM0 m net_0159 VSS VPW N12LL W=430.00n L=60.00n
MM53 QN s VDD VNW P12LL W=1.3u L=60.00n
MM51 net128 SEN net_0174 VNW P12LL W=300.00n L=60.00n
MM50 net_0174 SI VDD VNW P12LL W=300.00n L=60.00n
MM38 ps cn net_0158 VNW P12LL W=520.0n L=60.00n
MM41 net_0158 m VDD VNW P12LL W=520.0n L=60.00n
MM49 SEN SE VDD VNW P12LL W=300.00n L=60.00n
MM29 c cn VDD VNW P12LL W=440.00n L=60.00n
MM28 cn CK VDD VNW P12LL W=300.0n L=60.00n
MM26 VDD s net109 VNW P12LL W=300.00n L=60.00n
MM25 net109 c ps VNW P12LL W=300.00n L=60.00n
MM20 Q ps VDD VNW P12LL W=1.3u L=60.00n
MM18 s ps VDD VNW P12LL W=440.00n L=60.00n
MM14 net117 cn net_0159 VNW P12LL W=300.00n L=60.00n
MM13 VDD m net117 VNW P12LL W=300.00n L=60.00n
MM10 net_0159 c net128 VNW P12LL W=450.00n L=60.00n
MM44 net_0230 SE VDD VNW P12LL W=450.00n L=60.00n
MM47 net128 D net_0230 VNW P12LL W=450.00n L=60.00n
MM1 m net_0159 VDD VNW P12LL W=650.00n L=60.00n
.ENDS SDHSV4
****Sub-Circuit for SDQHSV1, Wed Dec  8 11:21:18 CST 2010****
.SUBCKT SDQHSV1 CK D Q SE SI VDD VSS
MM46 net_0107 SI VSS VPW N12LL W=200.00n L=60.00n
MM45 net_0163 SE net_0107 VPW N12LL W=200.00n L=60.00n
MM39 ps c net_099 VPW N12LL W=280.00n L=60.00n
MM48 SEN SE VSS VPW N12LL W=200.00n L=60.00n
MM40 net_099 m VSS VPW N12LL W=280.00n L=60.00n
MM43 net_0123 SEN VSS VPW N12LL W=300.00n L=60.00n
MM30 c cn VSS VPW N12LL W=290.00n L=60.00n
MM27 cn CK VSS VPW N12LL W=200.00n L=60.00n
MM24 net48 cn ps VPW N12LL W=200.00n L=60.00n
MM23 VSS s net48 VPW N12LL W=200.00n L=60.00n
MM19 Q ps VSS VPW N12LL W=290.00n L=60.00n
MM17 s ps VSS VPW N12LL W=200.00n L=60.00n
MM12 net52 c net_0159 VPW N12LL W=200.00n L=60.00n
MM11 VSS m net52 VPW N12LL W=200.00n L=60.00n
MM9 net_0159 cn net_0163 VPW N12LL W=300.00n L=60.00n
MM42 net_0163 D net_0123 VPW N12LL W=300.00n L=60.00n
MM0 m net_0159 VSS VPW N12LL W=290.00n L=60.00n
MM51 net128 SEN net_0174 VNW P12LL W=300.00n L=60.00n
MM50 net_0174 SI VDD VNW P12LL W=300.00n L=60.00n
MM38 ps cn net_0158 VNW P12LL W=300.00n L=60.00n
MM41 net_0158 m VDD VNW P12LL W=300.00n L=60.00n
MM49 SEN SE VDD VNW P12LL W=300.00n L=60.00n
MM29 c cn VDD VNW P12LL W=440.00n L=60.00n
MM28 cn CK VDD VNW P12LL W=300.00n L=60.00n
MM26 VDD s net109 VNW P12LL W=300.00n L=60.00n
MM25 net109 c ps VNW P12LL W=300.00n L=60.00n
MM20 Q ps VDD VNW P12LL W=440.00n L=60.00n