* ---------------------------------------------------------------------------- 
* 
*     library Calibre-based CDL file 
* 
*     Date: Feb 19, 2010 11:19:35 PM IST 
* 
*     CellBuilder version 3.2.3 -- built on Dec 04, 2009 
*     Copyright (c) 2002-2009 ARM, Inc. 
*     The confidential and proprietary information contained in this file 
*     may only be used by a person authorised under and to the extent 
*     permitted by a subsisting licensing agreement from ARM Limited. 
*      
*     (C) COPYRIGHT 2004-2010 ARM Limited. 
*     ALL RIGHTS RESERVED 
*      
*     This entire notice must be reproduced on all copies of this file 
*     and copies of this file may only be made by a person if such person 
*     is permitted to do so under the terms of a subsisting license 
*     agreement from ARM Limited. 
* 
* ----------------------------------------------------------------------------

*.EQUATION
.PARAM 
*.SCALE meter

.SUBCKT A2SDFFQN_X0P5M_A9TR QN VDD VNW VPW VSS A B CK SE SI
M0 3 SE VSS VPW nch L=4e-08 W=1.2e-07 
M1 22 SE 4 VPW nch L=4e-08 W=1.2e-07 
M2 VSS SI 22 VPW nch L=4e-08 W=1.2e-07 
M3 23 3 VSS VPW nch L=4e-08 W=2.45e-07 
M4 6 B 23 VPW nch L=4e-08 W=2.45e-07 
M5 4 A 6 VPW nch L=4e-08 W=2.45e-07 
M6 7 13 4 VPW nch L=4e-08 W=1.2e-07 
M7 24 12 7 VPW nch L=4e-08 W=1.2e-07 
M8 VSS 8 24 VPW nch L=4e-08 W=1.2e-07 
M9 8 7 VSS VPW nch L=4e-08 W=1.2e-07 
M10 9 12 8 VPW nch L=4e-08 W=1.2e-07 
M11 25 13 9 VPW nch L=4e-08 W=1.2e-07 
M12 VSS 10 25 VPW nch L=4e-08 W=1.2e-07 
M13 VSS 9 10 VPW nch L=4e-08 W=1.2e-07 
M14 QN 9 VSS VPW nch L=4e-08 W=1.55e-07 
M15 VSS 13 12 VPW nch L=4e-08 W=1.2e-07 
M16 13 CK VSS VPW nch L=4e-08 W=1.2e-07 
M17 3 SE VDD VNW pch L=4e-08 W=1.7e-07 
M18 19 3 4 VNW pch L=4e-08 W=1.55e-07 
M19 VDD SI 19 VNW pch L=4e-08 W=1.55e-07 
M20 5 SE VDD VNW pch L=4e-08 W=2.55e-07 
M21 4 B 5 VNW pch L=4e-08 W=2.55e-07 
M22 4 A 5 VNW pch L=4e-08 W=2.55e-07 
M23 7 12 4 VNW pch L=4e-08 W=1.2e-07 
M24 20 13 7 VNW pch L=4e-08 W=1.2e-07 
M25 VDD 8 20 VNW pch L=4e-08 W=1.2e-07 
M26 8 7 VDD VNW pch L=4e-08 W=1.8e-07 
M27 9 13 8 VNW pch L=4e-08 W=1.2e-07 
M28 21 12 9 VNW pch L=4e-08 W=1.2e-07 
M29 VDD 10 21 VNW pch L=4e-08 W=1.2e-07 
M30 VDD 9 10 VNW pch L=4e-08 W=1.2e-07 
M31 QN 9 VDD VNW pch L=4e-08 W=2e-07 
M32 VDD 13 12 VNW pch L=4e-08 W=2.5e-07 
M33 13 CK VDD VNW pch L=4e-08 W=1.3e-07 
.ENDS


.SUBCKT A2SDFFQN_X1M_A9TR QN VDD VNW VPW VSS A B CK SE SI
M0 3 SE VSS VPW nch L=4e-08 W=1.2e-07 
M1 22 SE 4 VPW nch L=4e-08 W=1.2e-07 
M2 VSS SI 22 VPW nch L=4e-08 W=1.2e-07 
M3 23 3 VSS VPW nch L=4e-08 W=3.1e-07 
M4 6 B 23 VPW nch L=4e-08 W=3.1e-07 
M5 4 A 6 VPW nch L=4e-08 W=3.1e-07 
M6 7 13 4 VPW nch L=4e-08 W=1.6e-07 
M7 24 12 7 VPW nch L=4e-08 W=1.2e-07 
M8 VSS 8 24 VPW nch L=4e-08 W=1.2e-07 
M9 8 7 VSS VPW nch L=4e-08 W=1.6e-07 
M10 9 12 8 VPW nch L=4e-08 W=1.6e-07 
M11 25 13 9 VPW nch L=4e-08 W=1.2e-07 
M12 VSS 10 25 VPW nch L=4e-08 W=1.2e-07 
M13 VSS 9 10 VPW nch L=4e-08 W=1.2e-07 
M14 QN 9 VSS VPW nch L=4e-08 W=3.1e-07 
M15 VSS 13 12 VPW nch L=4e-08 W=1.2e-07 
M16 13 CK VSS VPW nch L=4e-08 W=1.2e-07 
M17 3 SE VDD VNW pch L=4e-08 W=1.7e-07 
M18 19 3 4 VNW pch L=4e-08 W=1.55e-07 
M19 VDD SI 19 VNW pch L=4e-08 W=1.55e-07 
M20 5 SE VDD VNW pch L=4e-08 W=3.1e-07 
M21 4 B 5 VNW pch L=4e-08 W=3.1e-07 
M22 4 A 5 VNW pch L=4e-08 W=3.1e-07 
M23 7 12 4 VNW pch L=4e-08 W=1.6e-07 
M24 20 13 7 VNW pch L=4e-08 W=1.2e-07 
M25 VDD 8 20 VNW pch L=4e-08 W=1.2e-07 
M26 8 7 VDD VNW pch L=4e-08 W=2.3e-07 
M27 9 13 8 VNW pch L=4e-08 W=1.6e-07 
M28 21 12 9 VNW pch L=4e-08 W=1.2e-07 
M29 VDD 10 21 VNW pch L=4e-08 W=1.2e-07 
M30 VDD 9 10 VNW pch L=4e-08 W=1.2e-07 
M31 QN 9 VDD VNW pch L=4e-08 W=3.8e-07 
M32 VDD 13 12 VNW pch L=4e-08 W=2.5e-07 
M33 13 CK VDD VNW pch L=4e-08 W=1.3e-07 
.ENDS


.SUBCKT A2SDFFQN_X2M_A9TR QN VDD VNW VPW VSS A B CK SE SI
M0 3 SE VSS VPW nch L=4e-08 W=1.2e-07 
M1 22 SE 4 VPW nch L=4e-08 W=1.2e-07 
M2 VSS SI 22 VPW nch L=4e-08 W=1.2e-07 
M3 23 3 VSS VPW nch L=4e-08 W=3.5e-07 
M4 6 B 23 VPW nch L=4e-08 W=3.5e-07 
M5 4 A 6 VPW nch L=4e-08 W=3.5e-07 
M6 7 13 4 VPW nch L=4e-08 W=2.5e-07 
M7 24 12 7 VPW nch L=4e-08 W=1.2e-07 
M8 VSS 8 24 VPW nch L=4e-08 W=1.2e-07 
M9 8 7 VSS VPW nch L=4e-08 W=2.5e-07 
M10 9 12 8 VPW nch L=4e-08 W=2.5e-07 
M11 25 13 9 VPW nch L=4e-08 W=1.2e-07 
M12 VSS 10 25 VPW nch L=4e-08 W=1.2e-07 
M13 VSS 9 10 VPW nch L=4e-08 W=1.2e-07 
M14 QN 9 VSS VPW nch L=4e-08 W=3.1e-07 
M15 VSS 9 QN VPW nch L=4e-08 W=3.1e-07 
M16 VSS 13 12 VPW nch L=4e-08 W=1.3e-07 
M17 13 CK VSS VPW nch L=4e-08 W=1.3e-07 
M18 3 SE VDD VNW pch L=4e-08 W=1.7e-07 
M19 19 3 4 VNW pch L=4e-08 W=1.55e-07 
M20 VDD SI 19 VNW pch L=4e-08 W=1.55e-07 
M21 5 SE VDD VNW pch L=4e-08 W=3.4e-07 
M22 4 B 5 VNW pch L=4e-08 W=3.4e-07 
M23 4 A 5 VNW pch L=4e-08 W=3.4e-07 
M24 7 12 4 VNW pch L=4e-08 W=2.5e-07 
M25 20 13 7 VNW pch L=4e-08 W=1.2e-07 
M26 VDD 8 20 VNW pch L=4e-08 W=1.2e-07 
M27 8 7 VDD VNW pch L=4e-08 W=3.2e-07 
M28 9 13 8 VNW pch L=4e-08 W=2.5e-07 
M29 21 12 9 VNW pch L=4e-08 W=1.2e-07 
M30 VDD 10 21 VNW pch L=4e-08 W=1.2e-07 
M31 VDD 9 10 VNW pch L=4e-08 W=1.2e-07 
M32 QN 9 VDD VNW pch L=4e-08 W=3.8e-07 
M33 VDD 9 QN VNW pch L=4e-08 W=3.8e-07 
M34 VDD 13 12 VNW pch L=4e-08 W=2.7e-07 
M35 13 CK VDD VNW pch L=4e-08 W=1.4e-07 
.ENDS


.SUBCKT A2SDFFQN_X3M_A9TR QN VDD VNW VPW VSS A B CK SE SI
M0 3 SE VSS VPW nch L=4e-08 W=1.2e-07 
M1 22 SE 4 VPW nch L=4e-08 W=1.2e-07 
M2 VSS SI 22 VPW nch L=4e-08 W=1.2e-07 
M3 23 3 VSS VPW nch L=4e-08 W=3.5e-07 
M4 6 B 23 VPW nch L=4e-08 W=3.5e-07 
M5 4 A 6 VPW nch L=4e-08 W=3.5e-07 
M6 7 13 4 VPW nch L=4e-08 W=3.1e-07 
M7 24 12 7 VPW nch L=4e-08 W=1.2e-07 
M8 VSS 8 24 VPW nch L=4e-08 W=1.2e-07 
M9 8 7 VSS VPW nch L=4e-08 W=3.1e-07 
M10 9 12 8 VPW nch L=4e-08 W=2.75e-07 
M11 25 13 9 VPW nch L=4e-08 W=1.2e-07 
M12 VSS 10 25 VPW nch L=4e-08 W=1.2e-07 
M13 VSS 9 10 VPW nch L=4e-08 W=1.2e-07 
M14 QN 9 VSS VPW nch L=4e-08 W=3.1e-07 
M15 VSS 9 QN VPW nch L=4e-08 W=3.1e-07 
M16 QN 9 VSS VPW nch L=4e-08 W=3.1e-07 
M17 VSS 13 12 VPW nch L=4e-08 W=1.4e-07 
M18 13 CK VSS VPW nch L=4e-08 W=1.4e-07 
M19 3 SE VDD VNW pch L=4e-08 W=1.7e-07 
M20 19 3 4 VNW pch L=4e-08 W=1.55e-07 
M21 VDD SI 19 VNW pch L=4e-08 W=1.55e-07 
M22 5 SE VDD VNW pch L=4e-08 W=3.4e-07 
M23 4 B 5 VNW pch L=4e-08 W=3.4e-07 
M24 4 A 5 VNW pch L=4e-08 W=3.4e-07 
M25 7 12 4 VNW pch L=4e-08 W=3.1e-07 
M26 20 13 7 VNW pch L=4e-08 W=1.2e-07 
M27 VDD 8 20 VNW pch L=4e-08 W=1.2e-07 
M28 8 7 VDD VNW pch L=4e-08 W=3.8e-07 
M29 9 13 8 VNW pch L=4e-08 W=3.1e-07 
M30 21 12 9 VNW pch L=4e-08 W=1.2e-07 
M31 VDD 10 21 VNW pch L=4e-08 W=1.2e-07 
M32 VDD 9 10 VNW pch L=4e-08 W=1.2e-07 
M33 QN 9 VDD VNW pch L=4e-08 W=3.8e-07 
M34 VDD 9 QN VNW pch L=4e-08 W=3.8e-07 
M35 QN 9 VDD VNW pch L=4e-08 W=3.8e-07 
M36 VDD 13 12 VNW pch L=4e-08 W=2.9e-07 
M37 13 CK VDD VNW pch L=4e-08 W=1.5e-07 
.ENDS


.SUBCKT A2SDFFQ_X0P5M_A9TR Q VDD VNW VPW VSS A B CK SE SI
M0 3 SE VSS VPW nch L=4e-08 W=1.2e-07 
M1 22 SE 4 VPW nch L=4e-08 W=1.2e-07 
M2 VSS SI 22 VPW nch L=4e-08 W=1.2e-07 
M3 23 3 VSS VPW nch L=4e-08 W=2.5e-07 
M4 6 B 23 VPW nch L=4e-08 W=2.5e-07 
M5 4 A 6 VPW nch L=4e-08 W=2.5e-07 
M6 7 13 4 VPW nch L=4e-08 W=1.2e-07 
M7 24 12 7 VPW nch L=4e-08 W=1.2e-07 
M8 VSS 8 24 VPW nch L=4e-08 W=1.2e-07 
M9 8 7 VSS VPW nch L=4e-08 W=1.2e-07 
M10 9 12 8 VPW nch L=4e-08 W=1.2e-07 
M11 25 13 9 VPW nch L=4e-08 W=1.2e-07 
M12 VSS 10 25 VPW nch L=4e-08 W=1.2e-07 
M13 VSS 9 10 VPW nch L=4e-08 W=1.2e-07 
M14 Q 10 VSS VPW nch L=4e-08 W=1.55e-07 
M15 VSS 13 12 VPW nch L=4e-08 W=1.2e-07 
M16 13 CK VSS VPW nch L=4e-08 W=1.2e-07 
M17 3 SE VDD VNW pch L=4e-08 W=1.7e-07 
M18 19 3 4 VNW pch L=4e-08 W=1.55e-07 
M19 VDD SI 19 VNW pch L=4e-08 W=1.55e-07 
M20 5 SE VDD VNW pch L=4e-08 W=2.5e-07 
M21 4 B 5 VNW pch L=4e-08 W=2.5e-07 
M22 4 A 5 VNW pch L=4e-08 W=2.5e-07 
M23 7 12 4 VNW pch L=4e-08 W=1.2e-07 
M24 20 13 7 VNW pch L=4e-08 W=1.2e-07 
M25 VDD 8 20 VNW pch L=4e-08 W=1.2e-07 
M26 8 7 VDD VNW pch L=4e-08 W=1.55e-07 
M27 9 13 8 VNW pch L=4e-08 W=1.2e-07 
M28 21 12 9 VNW pch L=4e-08 W=1.2e-07 
M29 VDD 10 21 VNW pch L=4e-08 W=1.2e-07 
M30 VDD 9 10 VNW pch L=4e-08 W=1.55e-07 
M31 Q 10 VDD VNW pch L=4e-08 W=2e-07 
M32 VDD 13 12 VNW pch L=4e-08 W=2.5e-07 
M33 13 CK VDD VNW pch L=4e-08 W=1.3e-07 
.ENDS


.SUBCKT A2SDFFQ_X1M_A9TR Q VDD VNW VPW VSS A B CK SE SI
M0 3 SE VSS VPW nch L=4e-08 W=1.2e-07 
M1 22 SE 4 VPW nch L=4e-08 W=1.2e-07 
M2 VSS SI 22 VPW nch L=4e-08 W=1.2e-07 
M3 23 3 VSS VPW nch L=4e-08 W=3.2e-07 
M4 6 B 23 VPW nch L=4e-08 W=3.2e-07 
M5 4 A 6 VPW nch L=4e-08 W=3.2e-07 
M6 7 13 4 VPW nch L=4e-08 W=1.6e-07 
M7 24 12 7 VPW nch L=4e-08 W=1.2e-07 
M8 VSS 8 24 VPW nch L=4e-08 W=1.2e-07 
M9 8 7 VSS VPW nch L=4e-08 W=1.6e-07 
M10 9 12 8 VPW nch L=4e-08 W=1.6e-07 
M11 25 13 9 VPW nch L=4e-08 W=1.2e-07 
M12 VSS 10 25 VPW nch L=4e-08 W=1.2e-07 
M13 VSS 9 10 VPW nch L=4e-08 W=1.75e-07 
M14 Q 10 VSS VPW nch L=4e-08 W=3.1e-07 
M15 VSS 13 12 VPW nch L=4e-08 W=1.2e-07 
M16 13 CK VSS VPW nch L=4e-08 W=1.2e-07 
M17 3 SE VDD VNW pch L=4e-08 W=1.7e-07 
M18 19 3 4 VNW pch L=4e-08 W=1.55e-07 
M19 VDD SI 19 VNW pch L=4e-08 W=1.55e-07 
M20 5 SE VDD VNW pch L=4e-08 W=3e-07 
M21 4 B 5 VNW pch L=4e-08 W=3e-07 
M22 4 A 5 VNW pch L=4e-08 W=3e-07 
M23 7 12 4 VNW pch L=4e-08 W=1.6e-07 
M24 20 13 7 VNW pch L=4e-08 W=1.2e-07 
M25 VDD 8 20 VNW pch L=4e-08 W=1.2e-07 
M26 8 7 VDD VNW pch L=4e-08 W=2.05e-07 
M27 9 13 8 VNW pch L=4e-08 W=1.6e-07 
M28 21 12 9 VNW pch L=4e-08 W=1.2e-07 
M29 VDD 10 21 VNW pch L=4e-08 W=1.2e-07 
M30 VDD 9 10 VNW pch L=4e-08 W=2.45e-07 
M31 Q 10 VDD VNW pch L=4e-08 W=3.8e-07 
M32 VDD 13 12 VNW pch L=4e-08 W=2.5e-07 
M33 13 CK VDD VNW pch L=4e-08 W=1.3e-07 
.ENDS


.SUBCKT A2SDFFQ_X2M_A9TR Q VDD VNW VPW VSS A B CK SE SI
M0 3 SE VSS VPW nch L=4e-08 W=1.2e-07 
M1 22 SE 4 VPW nch L=4e-08 W=1.2e-07 
M2 VSS SI 22 VPW nch L=4e-08 W=1.2e-07 
M3 23 3 VSS VPW nch L=4e-08 W=3.6e-07 
M4 6 B 23 VPW nch L=4e-08 W=3.6e-07 
M5 4 A 6 VPW nch L=4e-08 W=3.6e-07 
M6 7 13 4 VPW nch L=4e-08 W=2.5e-07 
M7 24 12 7 VPW nch L=4e-08 W=1.2e-07 
M8 VSS 8 24 VPW nch L=4e-08 W=1.2e-07 
M9 8 7 VSS VPW nch L=4e-08 W=2.5e-07 
M10 9 12 8 VPW nch L=4e-08 W=2.5e-07 
M11 25 13 9 VPW nch L=4e-08 W=1.2e-07 
M12 VSS 10 25 VPW nch L=4e-08 W=1.2e-07 
M13 VSS 9 10 VPW nch L=4e-08 W=2.5e-07 
M14 Q 10 VSS VPW nch L=4e-08 W=3.1e-07 
M15 VSS 10 Q VPW nch L=4e-08 W=3.1e-07 
M16 VSS 13 12 VPW nch L=4e-08 W=1.3e-07 
M17 13 CK VSS VPW nch L=4e-08 W=1.3e-07 
M18 3 SE VDD VNW pch L=4e-08 W=1.7e-07 
M19 19 3 4 VNW pch L=4e-08 W=1.55e-07 
M20 VDD SI 19 VNW pch L=4e-08 W=1.55e-07 
M21 5 SE VDD VNW pch L=4e-08 W=3.3e-07 
M22 4 B 5 VNW pch L=4e-08 W=3.3e-07 
M23 4 A 5 VNW pch L=4e-08 W=3.3e-07 
M24 7 12 4 VNW pch L=4e-08 W=2.5e-07 
M25 20 13 7 VNW pch L=4e-08 W=1.2e-07 
M26 VDD 8 20 VNW pch L=4e-08 W=1.2e-07 
M27 8 7 VDD VNW pch L=4e-08 W=3.1e-07 
M28 9 13 8 VNW pch L=4e-08 W=2.5e-07 
M29 21 12 9 VNW pch L=4e-08 W=1.2e-07 
M30 VDD 10 21 VNW pch L=4e-08 W=1.2e-07 
M31 VDD 9 10 VNW pch L=4e-08 W=3.8e-07 
M32 Q 10 VDD VNW pch L=4e-08 W=3.8e-07 
M33 VDD 10 Q VNW pch L=4e-08 W=3.8e-07 
M34 VDD 13 12 VNW pch L=4e-08 W=2.7e-07 
M35 13 CK VDD VNW pch L=4e-08 W=1.4e-07 
.ENDS


.SUBCKT A2SDFFQ_X3M_A9TR Q VDD VNW VPW VSS A B CK SE SI
M0 3 SE VSS VPW nch L=4e-08 W=1.2e-07 
M1 22 SE 4 VPW nch L=4e-08 W=1.2e-07 
M2 VSS SI 22 VPW nch L=4e-08 W=1.2e-07 
M3 23 3 VSS VPW nch L=4e-08 W=3.6e-07 
M4 6 B 23 VPW nch L=4e-08 W=3.6e-07 
M5 4 A 6 VPW nch L=4e-08 W=3.6e-07 
M6 7 13 4 VPW nch L=4e-08 W=3.1e-07 
M7 24 12 7 VPW nch L=4e-08 W=1.2e-07 
M8 VSS 8 24 VPW nch L=4e-08 W=1.2e-07 
M9 8 7 VSS VPW nch L=4e-08 W=3.5e-07 
M10 9 12 8 VPW nch L=4e-08 W=3.1e-07 
M11 25 13 9 VPW nch L=4e-08 W=1.2e-07 
M12 VSS 10 25 VPW nch L=4e-08 W=1.2e-07 
M13 VSS 9 10 VPW nch L=4e-08 W=2.5e-07 
M14 Q 10 VSS VPW nch L=4e-08 W=3.1e-07 
M15 VSS 10 Q VPW nch L=4e-08 W=3.1e-07 
M16 Q 10 VSS VPW nch L=4e-08 W=3.1e-07 
M17 VSS 13 12 VPW nch L=4e-08 W=1.4e-07 
M18 13 CK VSS VPW nch L=4e-08 W=1.4e-07 
M19 3 SE VDD VNW pch L=4e-08 W=1.7e-07 
M20 19 3 4 VNW pch L=4e-08 W=1.55e-07 
M21 VDD SI 19 VNW pch L=4e-08 W=1.55e-07 
M22 5 SE VDD VNW pch L=4e-08 W=3.3e-07 
M23 4 B 5 VNW pch L=4e-08 W=3.3e-07 
M24 4 A 5 VNW pch L=4e-08 W=3.3e-07 
M25 7 12 4 VNW pch L=4e-08 W=3.1e-07 
M26 20 13 7 VNW pch L=4e-08 W=1.2e-07 
M27 VDD 8 20 VNW pch L=4e-08 W=1.2e-07 
M28 8 7 VDD VNW pch L=4e-08 W=3.8e-07 
M29 9 13 8 VNW pch L=4e-08 W=3.1e-07 
M30 21 12 9 VNW pch L=4e-08 W=1.2e-07 
M31 VDD 10 21 VNW pch L=4e-08 W=1.2e-07 
M32 VDD 9 10 VNW pch L=4e-08 W=3.8e-07 
M33 Q 10 VDD VNW pch L=4e-08 W=3.8e-07 
M34 VDD 10 Q VNW pch L=4e-08 W=3.8e-07 
M35 Q 10 VDD VNW pch L=4e-08 W=3.8e-07 
M36 VDD 13 12 VNW pch L=4e-08 W=2.9e-07 
M37 13 CK VDD VNW pch L=4e-08 W=1.5e-07 
.ENDS


.SUBCKT A2SDFFQ_X4M_A9TR Q VDD VNW VPW VSS A B CK SE SI
M0 3 SE VSS VPW nch L=4e-08 W=1.2e-07 
M1 22 SE 4 VPW nch L=4e-08 W=1.2e-07 
M2 VSS SI 22 VPW nch L=4e-08 W=1.2e-07 
M3 23 3 VSS VPW nch L=4e-08 W=3.6e-07 
M4 6 B 23 VPW nch L=4e-08 W=3.6e-07 
M5 4 A 6 VPW nch L=4e-08 W=3.6e-07 
M6 7 13 4 VPW nch L=4e-08 W=3.1e-07 
M7 24 12 7 VPW nch L=4e-08 W=1.2e-07 
M8 VSS 8 24 VPW nch L=4e-08 W=1.2e-07 
M9 8 7 VSS VPW nch L=4e-08 W=3.5e-07 
M10 9 12 8 VPW nch L=4e-08 W=3.1e-07 
M11 25 13 9 VPW nch L=4e-08 W=1.2e-07 
M12 VSS 10 25 VPW nch L=4e-08 W=1.2e-07 
M13 10 9 VSS VPW nch L=4e-08 W=2.5e-07 
M14 VSS 9 10 VPW nch L=4e-08 W=2.5e-07 
M15 Q 10 VSS VPW nch L=4e-08 W=3.1e-07 
M16 VSS 10 Q VPW nch L=4e-08 W=3.1e-07 
M17 Q 10 VSS VPW nch L=4e-08 W=3.1e-07 
M18 VSS 10 Q VPW nch L=4e-08 W=3.1e-07 
M19 VSS 13 12 VPW nch L=4e-08 W=1.4e-07 
M20 13 CK VSS VPW nch L=4e-08 W=1.4e-07 
M21 3 SE VDD VNW pch L=4e-08 W=1.7e-07 
M22 19 3 4 VNW pch L=4e-08 W=1.55e-07 
M23 VDD SI 19 VNW pch L=4e-08 W=1.55e-07 
M24 5 SE VDD VNW pch L=4e-08 W=3.3e-07 
M25 4 B 5 VNW pch L=4e-08 W=3.3e-07 
M26 4 A 5 VNW pch L=4e-08 W=3.3e-07 
M27 7 12 4 VNW pch L=4e-08 W=3.1e-07 
M28 20 13 7 VNW pch L=4e-08 W=1.2e-07 
M29 VDD 8 20 VNW pch L=4e-08 W=1.2e-07 
M30 8 7 VDD VNW pch L=4e-08 W=3.8e-07 
M31 9 13 8 VNW pch L=4e-08 W=3.1e-07 
M32 21 12 9 VNW pch L=4e-08 W=1.2e-07 
M33 VDD 10 21 VNW pch L=4e-08 W=1.2e-07 
M34 10 9 VDD VNW pch L=4e-08 W=3.8e-07 
M35 VDD 9 10 VNW pch L=4e-08 W=3.8e-07 
M36 Q 10 VDD VNW pch L=4e-08 W=3.8e-07 
M37 VDD 10 Q VNW pch L=4e-08 W=3.8e-07 
M38 Q 10 VDD VNW pch L=4e-08 W=3.8e-07 
M39 VDD 10 Q VNW pch L=4e-08 W=3.8e-07 
M40 VDD 13 12 VNW pch L=4e-08 W=2.9e-07 
M41 13 CK VDD VNW pch L=4e-08 W=1.5e-07 
.ENDS


.SUBCKT ADDFCIN_X1M_A9TR CO SUM VDD VNW VPW VSS A B CIN
M0 VSS 4 1 VPW nch L=4e-08 W=3.15e-07 
M1 4 A VSS VPW nch L=4e-08 W=3.15e-07 
M2 5 B 4 VPW nch L=4e-08 W=3.15e-07 
M3 1 7 5 VPW nch L=4e-08 W=3.15e-07 
M4 6 7 4 VPW nch L=4e-08 W=3.15e-07 
M5 1 B 6 VPW nch L=4e-08 W=3.15e-07 
M6 7 B VSS VPW nch L=4e-08 W=1.55e-07 
M7 9 5 8 VPW nch L=4e-08 W=1.55e-07 
M8 7 6 9 VPW nch L=4e-08 W=1.55e-07 
M9 11 6 8 VPW nch L=4e-08 W=1.55e-07 
M10 10 5 11 VPW nch L=4e-08 W=1.55e-07 
M11 VSS 10 8 VPW nch L=4e-08 W=1.55e-07 
M12 10 CIN VSS VPW nch L=4e-08 W=1.55e-07 
M13 VSS 11 SUM VPW nch L=4e-08 W=2.95e-07 
M14 CO 9 VSS VPW nch L=4e-08 W=2.95e-07 
M15 VDD 4 1 VNW pch L=4e-08 W=3.8e-07 
M16 4 A VDD VNW pch L=4e-08 W=3.8e-07 
M17 5 B 1 VNW pch L=4e-08 W=3.8e-07 
M18 4 7 5 VNW pch L=4e-08 W=3.8e-07 
M19 6 7 1 VNW pch L=4e-08 W=3.8e-07 
M20 4 B 6 VNW pch L=4e-08 W=3.8e-07 
M21 7 B VDD VNW pch L=4e-08 W=2.6e-07 
M22 9 5 7 VNW pch L=4e-08 W=2.6e-07 
M23 8 6 9 VNW pch L=4e-08 W=2.6e-07 
M24 11 6 10 VNW pch L=4e-08 W=2.6e-07 
M25 8 5 11 VNW pch L=4e-08 W=2.6e-07 
M26 VDD 10 8 VNW pch L=4e-08 W=2.6e-07 
M27 10 CIN VDD VNW pch L=4e-08 W=2.6e-07 
M28 VDD 11 SUM VNW pch L=4e-08 W=3.8e-07 
M29 CO 9 VDD VNW pch L=4e-08 W=3.8e-07 
.ENDS


.SUBCKT ADDFCIN_X1P4M_A9TR CO SUM VDD VNW VPW VSS A B CIN
M0 VSS 4 1 VPW nch L=4e-08 W=3.15e-07 
M1 4 A VSS VPW nch L=4e-08 W=3.15e-07 
M2 5 B 4 VPW nch L=4e-08 W=3.15e-07 
M3 1 7 5 VPW nch L=4e-08 W=3.15e-07 
M4 6 7 4 VPW nch L=4e-08 W=3.15e-07 
M5 1 B 6 VPW nch L=4e-08 W=3.15e-07 
M6 7 B VSS VPW nch L=4e-08 W=2.3e-07 
M7 9 5 8 VPW nch L=4e-08 W=2.3e-07 
M8 7 6 9 VPW nch L=4e-08 W=2.3e-07 
M9 11 6 8 VPW nch L=4e-08 W=2.3e-07 
M10 10 5 11 VPW nch L=4e-08 W=2.3e-07 
M11 VSS 10 8 VPW nch L=4e-08 W=2.3e-07 
M12 10 CIN VSS VPW nch L=4e-08 W=2.3e-07 
M13 SUM 11 VSS VPW nch L=4e-08 W=2.2e-07 
M14 VSS 11 SUM VPW nch L=4e-08 W=2.2e-07 
M15 CO 9 VSS VPW nch L=4e-08 W=2.2e-07 
M16 VSS 9 CO VPW nch L=4e-08 W=2.2e-07 
M17 VDD 4 1 VNW pch L=4e-08 W=3.8e-07 
M18 4 A VDD VNW pch L=4e-08 W=3.8e-07 
M19 5 B 1 VNW pch L=4e-08 W=3.8e-07 
M20 4 7 5 VNW pch L=4e-08 W=3.8e-07 
M21 6 7 1 VNW pch L=4e-08 W=3.8e-07 
M22 4 B 6 VNW pch L=4e-08 W=3.8e-07 
M23 7 B VDD VNW pch L=4e-08 W=3.8e-07 
M24 9 5 7 VNW pch L=4e-08 W=3.8e-07 
M25 8 6 9 VNW pch L=4e-08 W=3.8e-07 
M26 11 6 10 VNW pch L=4e-08 W=3.8e-07 
M27 8 5 11 VNW pch L=4e-08 W=3.8e-07 
M28 VDD 10 8 VNW pch L=4e-08 W=3.8e-07 
M29 10 CIN VDD VNW pch L=4e-08 W=3.8e-07 
M30 SUM 11 VDD VNW pch L=4e-08 W=2.85e-07 
M31 VDD 11 SUM VNW pch L=4e-08 W=2.85e-07 
M32 CO 9 VDD VNW pch L=4e-08 W=2.85e-07 
M33 VDD 9 CO VNW pch L=4e-08 W=2.85e-07 
.ENDS


.SUBCKT ADDFCIN_X2M_A9TR CO SUM VDD VNW VPW VSS A B CIN
M0 VSS 4 1 VPW nch L=4e-08 W=3.15e-07 
M1 4 A VSS VPW nch L=4e-08 W=3.15e-07 
M2 5 B 4 VPW nch L=4e-08 W=3.15e-07 
M3 1 7 5 VPW nch L=4e-08 W=3.15e-07 
M4 6 7 4 VPW nch L=4e-08 W=3.15e-07 
M5 1 B 6 VPW nch L=4e-08 W=3.15e-07 
M6 7 B VSS VPW nch L=4e-08 W=2.3e-07 
M7 9 5 8 VPW nch L=4e-08 W=2.3e-07 
M8 7 6 9 VPW nch L=4e-08 W=2.3e-07 
M9 11 6 8 VPW nch L=4e-08 W=2.3e-07 
M10 10 5 11 VPW nch L=4e-08 W=2.3e-07 
M11 VSS 10 8 VPW nch L=4e-08 W=2.3e-07 
M12 10 CIN VSS VPW nch L=4e-08 W=2.3e-07 
M13 SUM 11 VSS VPW nch L=4e-08 W=2.95e-07 
M14 VSS 11 SUM VPW nch L=4e-08 W=2.95e-07 
M15 CO 9 VSS VPW nch L=4e-08 W=2.95e-07 
M16 VSS 9 CO VPW nch L=4e-08 W=2.95e-07 
M17 VDD 4 1 VNW pch L=4e-08 W=3.8e-07 
M18 4 A VDD VNW pch L=4e-08 W=3.8e-07 
M19 5 B 1 VNW pch L=4e-08 W=3.8e-07 
M20 4 7 5 VNW pch L=4e-08 W=3.8e-07 
M21 6 7 1 VNW pch L=4e-08 W=3.8e-07 
M22 4 B 6 VNW pch L=4e-08 W=3.8e-07 
M23 7 B VDD VNW pch L=4e-08 W=3.8e-07 
M24 9 5 7 VNW pch L=4e-08 W=3.8e-07 
M25 8 6 9 VNW pch L=4e-08 W=3.8e-07 
M26 11 6 10 VNW pch L=4e-08 W=3.8e-07 
M27 8 5 11 VNW pch L=4e-08 W=3.8e-07 
M28 VDD 10 8 VNW pch L=4e-08 W=3.8e-07 
M29 10 CIN VDD VNW pch L=4e-08 W=3.8e-07 
M30 SUM 11 VDD VNW pch L=4e-08 W=3.8e-07 
M31 VDD 11 SUM VNW pch L=4e-08 W=3.8e-07 
M32 CO 9 VDD VNW pch L=4e-08 W=3.8e-07 
M33 VDD 9 CO VNW pch L=4e-08 W=3.8e-07 
.ENDS


.SUBCKT ADDFH_X1M_A9TR CO SUM VDD VNW VPW VSS A B CI
M0 VSS 4 1 VPW nch L=4e-08 W=3.15e-07 
M1 4 A VSS VPW nch L=4e-08 W=3.15e-07 
M2 5 B 4 VPW nch L=4e-08 W=3.15e-07 
M3 1 7 5 VPW nch L=4e-08 W=3.15e-07 
M4 6 7 4 VPW nch L=4e-08 W=3.15e-07 
M5 1 B 6 VPW nch L=4e-08 W=3.15e-07 
M6 7 B VSS VPW nch L=4e-08 W=1.55e-07 
M7 9 5 8 VPW nch L=4e-08 W=1.55e-07 
M8 7 6 9 VPW nch L=4e-08 W=1.55e-07 
M9 11 6 8 VPW nch L=4e-08 W=1.55e-07 
M10 10 5 11 VPW nch L=4e-08 W=1.55e-07 
M11 VSS 8 10 VPW nch L=4e-08 W=1.55e-07 
M12 8 CI VSS VPW nch L=4e-08 W=1.55e-07 
M13 VSS 11 SUM VPW nch L=4e-08 W=2.95e-07 
M14 CO 9 VSS VPW nch L=4e-08 W=2.95e-07 
M15 VDD 4 1 VNW pch L=4e-08 W=3.8e-07 
M16 4 A VDD VNW pch L=4e-08 W=3.8e-07 
M17 5 B 1 VNW pch L=4e-08 W=3.8e-07 
M18 4 7 5 VNW pch L=4e-08 W=3.8e-07 
M19 6 7 1 VNW pch L=4e-08 W=3.8e-07 
M20 4 B 6 VNW pch L=4e-08 W=3.8e-07 
M21 7 B VDD VNW pch L=4e-08 W=2.6e-07 
M22 9 5 7 VNW pch L=4e-08 W=2.6e-07 
M23 8 6 9 VNW pch L=4e-08 W=2.6e-07 
M24 11 6 10 VNW pch L=4e-08 W=2.6e-07 
M25 8 5 11 VNW pch L=4e-08 W=2.6e-07 
M26 VDD 8 10 VNW pch L=4e-08 W=2.6e-07 
M27 8 CI VDD VNW pch L=4e-08 W=2.6e-07 
M28 VDD 11 SUM VNW pch L=4e-08 W=3.8e-07 
M29 CO 9 VDD VNW pch L=4e-08 W=3.8e-07 
.ENDS


.SUBCKT ADDFH_X1P4M_A9TR CO SUM VDD VNW VPW VSS A B CI
M0 VSS 4 1 VPW nch L=4e-08 W=3.15e-07 
M1 4 A VSS VPW nch L=4e-08 W=3.15e-07 
M2 5 B 4 VPW nch L=4e-08 W=3.15e-07 
M3 1 7 5 VPW nch L=4e-08 W=3.15e-07 
M4 6 7 4 VPW nch L=4e-08 W=3.15e-07 
M5 1 B 6 VPW nch L=4e-08 W=3.15e-07 
M6 7 B VSS VPW nch L=4e-08 W=2.3e-07 
M7 9 5 8 VPW nch L=4e-08 W=2.3e-07 
M8 7 6 9 VPW nch L=4e-08 W=2.3e-07 
M9 11 6 8 VPW nch L=4e-08 W=2.3e-07 
M10 10 5 11 VPW nch L=4e-08 W=2.3e-07 
M11 VSS 8 10 VPW nch L=4e-08 W=2.3e-07 
M12 8 CI VSS VPW nch L=4e-08 W=2.3e-07 
M13 SUM 11 VSS VPW nch L=4e-08 W=2.2e-07 
M14 VSS 11 SUM VPW nch L=4e-08 W=2.2e-07 
M15 CO 9 VSS VPW nch L=4e-08 W=2.2e-07 
M16 VSS 9 CO VPW nch L=4e-08 W=2.2e-07 
M17 VDD 4 1 VNW pch L=4e-08 W=3.8e-07 
M18 4 A VDD VNW pch L=4e-08 W=3.8e-07 
M19 5 B 1 VNW pch L=4e-08 W=3.8e-07 
M20 4 7 5 VNW pch L=4e-08 W=3.8e-07 
M21 6 7 1 VNW pch L=4e-08 W=3.8e-07 
M22 4 B 6 VNW pch L=4e-08 W=3.8e-07 
M23 7 B VDD VNW pch L=4e-08 W=3.8e-07 
M24 9 5 7 VNW pch L=4e-08 W=3.8e-07 
M25 8 6 9 VNW pch L=4e-08 W=3.8e-07 
M26 11 6 10 VNW pch L=4e-08 W=3.8e-07 
M27 8 5 11 VNW pch L=4e-08 W=3.8e-07 
M28 VDD 8 10 VNW pch L=4e-08 W=3.8e-07 
M29 8 CI VDD VNW pch L=4e-08 W=3.8e-07 
M30 SUM 11 VDD VNW pch L=4e-08 W=2.85e-07 
M31 VDD 11 SUM VNW pch L=4e-08 W=2.85e-07 
M32 CO 9 VDD VNW pch L=4e-08 W=2.85e-07 
M33 VDD 9 CO VNW pch L=4e-08 W=2.85e-07 
.ENDS


.SUBCKT ADDFH_X2M_A9TR CO SUM VDD VNW VPW VSS A B CI
M0 VSS 4 1 VPW nch L=4e-08 W=3.15e-07 
M1 4 A VSS VPW nch L=4e-08 W=3.15e-07 
M2 5 B 4 VPW nch L=4e-08 W=3.15e-07 
M3 1 7 5 VPW nch L=4e-08 W=3.15e-07 
M4 6 7 4 VPW nch L=4e-08 W=3.15e-07 
M5 1 B 6 VPW nch L=4e-08 W=3.15e-07 
M6 7 B VSS VPW nch L=4e-08 W=2.3e-07 
M7 9 5 8 VPW nch L=4e-08 W=2.3e-07 
M8 7 6 9 VPW nch L=4e-08 W=2.3e-07 
M9 11 6 8 VPW nch L=4e-08 W=2.3e-07 
M10 10 5 11 VPW nch L=4e-08 W=2.3e-07 
M11 VSS 8 10 VPW nch L=4e-08 W=2.3e-07 
M12 8 CI VSS VPW nch L=4e-08 W=2.3e-07 
M13 SUM 11 VSS VPW nch L=4e-08 W=2.95e-07 
M14 VSS 11 SUM VPW nch L=4e-08 W=2.95e-07 
M15 CO 9 VSS VPW nch L=4e-08 W=2.95e-07 
M16 VSS 9 CO VPW nch L=4e-08 W=2.95e-07 
M17 VDD 4 1 VNW pch L=4e-08 W=3.8e-07 
M18 4 A VDD VNW pch L=4e-08 W=3.8e-07 
M19 5 B 1 VNW pch L=4e-08 W=3.8e-07 
M20 4 7 5 VNW pch L=4e-08 W=3.8e-07 
M21 6 7 1 VNW pch L=4e-08 W=3.8e-07 
M22 4 B 6 VNW pch L=4e-08 W=3.8e-07 
M23 7 B VDD VNW pch L=4e-08 W=3.8e-07 
M24 9 5 7 VNW pch L=4e-08 W=3.8e-07 
M25 8 6 9 VNW pch L=4e-08 W=3.8e-07 
M26 11 6 10 VNW pch L=4e-08 W=3.8e-07 
M27 8 5 11 VNW pch L=4e-08 W=3.8e-07 
M28 VDD 8 10 VNW pch L=4e-08 W=3.8e-07 
M29 8 CI VDD VNW pch L=4e-08 W=3.8e-07 
M30 SUM 11 VDD VNW pch L=4e-08 W=3.8e-07 
M31 VDD 11 SUM VNW pch L=4e-08 W=3.8e-07 
M32 CO 9 VDD VNW pch L=4e-08 W=3.8e-07 
M33 VDD 9 CO VNW pch L=4e-08 W=3.8e-07 
.ENDS


.SUBCKT ADDF_X1M_A9TR CO S VDD VNW VPW VSS A B CI
M0 VSS 6 CO VPW nch L=4e-08 W=3.1e-07 
M1 4 A VSS VPW nch L=4e-08 W=2.2e-07 
M2 VSS B 4 VPW nch L=4e-08 W=2.2e-07 
M3 17 B VSS VPW nch L=4e-08 W=2.2e-07 
M4 6 A 17 VPW nch L=4e-08 W=2.2e-07 
M5 4 CI 6 VPW nch L=4e-08 W=2.2e-07 
M6 7 CI VSS VPW nch L=4e-08 W=3.5e-07 
M7 VSS A 7 VPW nch L=4e-08 W=3.5e-07 
M8 7 B VSS VPW nch L=4e-08 W=3.5e-07 
M9 9 6 7 VPW nch L=4e-08 W=3.5e-07 
M10 18 CI 9 VPW nch L=4e-08 W=2e-07 
M11 19 A 18 VPW nch L=4e-08 W=2e-07 
M12 VSS B 19 VPW nch L=4e-08 W=2e-07 
M13 S 9 VSS VPW nch L=4e-08 W=3.1e-07 
M14 VDD 6 CO VNW pch L=4e-08 W=4e-07 
M15 5 A VDD VNW pch L=4e-08 W=3.8e-07 
M16 VDD B 5 VNW pch L=4e-08 W=3.8e-07 
M17 14 B VDD VNW pch L=4e-08 W=3.8e-07 
M18 6 A 14 VNW pch L=4e-08 W=3.8e-07 
M19 5 CI 6 VNW pch L=4e-08 W=3.8e-07 
M20 8 CI VDD VNW pch L=4e-08 W=3.8e-07 
M21 VDD A 8 VNW pch L=4e-08 W=3.8e-07 
M22 8 B VDD VNW pch L=4e-08 W=3.8e-07 
M23 9 6 8 VNW pch L=4e-08 W=3.8e-07 
M24 15 CI 9 VNW pch L=4e-08 W=3.8e-07 
M25 16 A 15 VNW pch L=4e-08 W=3.8e-07 
M26 VDD B 16 VNW pch L=4e-08 W=3.8e-07 
M27 S 9 VDD VNW pch L=4e-08 W=4e-07 
.ENDS


.SUBCKT ADDF_X1P4M_A9TR CO S VDD VNW VPW VSS A B CI
M0 CO 6 VSS VPW nch L=4e-08 W=2.2e-07 
M1 VSS 6 CO VPW nch L=4e-08 W=2.2e-07 
M2 4 A VSS VPW nch L=4e-08 W=2.2e-07 
M3 VSS B 4 VPW nch L=4e-08 W=2.2e-07 
M4 17 B VSS VPW nch L=4e-08 W=2.2e-07 
M5 6 A 17 VPW nch L=4e-08 W=2.2e-07 
M6 4 CI 6 VPW nch L=4e-08 W=2.2e-07 
M7 7 CI VSS VPW nch L=4e-08 W=3.5e-07 
M8 VSS A 7 VPW nch L=4e-08 W=3.5e-07 
M9 7 B VSS VPW nch L=4e-08 W=3.5e-07 
M10 9 6 7 VPW nch L=4e-08 W=3.5e-07 
M11 18 CI 9 VPW nch L=4e-08 W=2e-07 
M12 19 A 18 VPW nch L=4e-08 W=2e-07 
M13 VSS B 19 VPW nch L=4e-08 W=2e-07 
M14 S 9 VSS VPW nch L=4e-08 W=2.2e-07 
M15 VSS 9 S VPW nch L=4e-08 W=2.2e-07 
M16 CO 6 VDD VNW pch L=4e-08 W=2.85e-07 
M17 VDD 6 CO VNW pch L=4e-08 W=2.85e-07 
M18 5 A VDD VNW pch L=4e-08 W=3.8e-07 
M19 VDD B 5 VNW pch L=4e-08 W=3.8e-07 
M20 14 B VDD VNW pch L=4e-08 W=3.8e-07 
M21 6 A 14 VNW pch L=4e-08 W=3.8e-07 
M22 5 CI 6 VNW pch L=4e-08 W=3.8e-07 
M23 8 CI VDD VNW pch L=4e-08 W=3.8e-07 
M24 VDD A 8 VNW pch L=4e-08 W=3.8e-07 
M25 8 B VDD VNW pch L=4e-08 W=3.8e-07 
M26 9 6 8 VNW pch L=4e-08 W=3.8e-07 
M27 15 CI 9 VNW pch L=4e-08 W=3.8e-07 
M28 16 A 15 VNW pch L=4e-08 W=3.8e-07 
M29 VDD B 16 VNW pch L=4e-08 W=3.8e-07 
M30 S 9 VDD VNW pch L=4e-08 W=2.85e-07 
M31 VDD 9 S VNW pch L=4e-08 W=2.85e-07 
.ENDS


.SUBCKT ADDF_X2M_A9TR CO S VDD VNW VPW VSS A B CI
M0 CO 6 VSS VPW nch L=4e-08 W=3.1e-07 
M1 VSS 6 CO VPW nch L=4e-08 W=3.1e-07 
M2 4 A VSS VPW nch L=4e-08 W=2.2e-07 
M3 VSS B 4 VPW nch L=4e-08 W=2.2e-07 
M4 17 B VSS VPW nch L=4e-08 W=2.2e-07 
M5 6 A 17 VPW nch L=4e-08 W=2.2e-07 
M6 4 CI 6 VPW nch L=4e-08 W=2.2e-07 
M7 7 CI VSS VPW nch L=4e-08 W=3.5e-07 
M8 VSS A 7 VPW nch L=4e-08 W=3.5e-07 
M9 7 B VSS VPW nch L=4e-08 W=3.5e-07 
M10 9 6 7 VPW nch L=4e-08 W=3.5e-07 
M11 18 CI 9 VPW nch L=4e-08 W=2e-07 
M12 19 A 18 VPW nch L=4e-08 W=2e-07 
M13 VSS B 19 VPW nch L=4e-08 W=2e-07 
M14 S 9 VSS VPW nch L=4e-08 W=3.1e-07 
M15 VSS 9 S VPW nch L=4e-08 W=3.1e-07 
M16 CO 6 VDD VNW pch L=4e-08 W=4e-07 
M17 VDD 6 CO VNW pch L=4e-08 W=4e-07 
M18 5 A VDD VNW pch L=4e-08 W=3.8e-07 
M19 VDD B 5 VNW pch L=4e-08 W=3.8e-07 
M20 14 B VDD VNW pch L=4e-08 W=3.8e-07 
M21 6 A 14 VNW pch L=4e-08 W=3.8e-07 
M22 5 CI 6 VNW pch L=4e-08 W=3.8e-07 
M23 8 CI VDD VNW pch L=4e-08 W=3.8e-07 
M24 VDD A 8 VNW pch L=4e-08 W=3.8e-07 
M25 8 B VDD VNW pch L=4e-08 W=3.8e-07 
M26 9 6 8 VNW pch L=4e-08 W=3.8e-07 
M27 15 CI 9 VNW pch L=4e-08 W=3.8e-07 
M28 16 A 15 VNW pch L=4e-08 W=3.8e-07 
M29 VDD B 16 VNW pch L=4e-08 W=3.8e-07 
M30 S 9 VDD VNW pch L=4e-08 W=4e-07 
M31 VDD 9 S VNW pch L=4e-08 W=4e-07 
.ENDS


.SUBCKT ADDH_X1M_A9TR CO S VDD VNW VPW VSS A B
M0 VSS 4 CO VPW nch L=4e-08 W=3.1e-07 
M1 11 B VSS VPW nch L=4e-08 W=3.2e-07 
M2 4 A 11 VPW nch L=4e-08 W=3.2e-07 
M3 VSS B 5 VPW nch L=4e-08 W=2.35e-07 
M4 5 A VSS VPW nch L=4e-08 W=2.35e-07 
M5 6 4 5 VPW nch L=4e-08 W=2.35e-07 
M6 S 6 VSS VPW nch L=4e-08 W=3.1e-07 
M7 VDD 4 CO VNW pch L=4e-08 W=4e-07 
M8 4 B VDD VNW pch L=4e-08 W=2.8e-07 
M9 VDD A 4 VNW pch L=4e-08 W=2.8e-07 
M10 10 B VDD VNW pch L=4e-08 W=2.8e-07 
M11 6 A 10 VNW pch L=4e-08 W=2.8e-07 
M12 VDD 4 6 VNW pch L=4e-08 W=1.3e-07 
M13 S 6 VDD VNW pch L=4e-08 W=4e-07 
.ENDS


.SUBCKT ADDH_X1P4M_A9TR CO S VDD VNW VPW VSS A B
M0 CO 4 VSS VPW nch L=4e-08 W=2.2e-07 
M1 VSS 4 CO VPW nch L=4e-08 W=2.2e-07 
M2 11 B VSS VPW nch L=4e-08 W=4e-07 
M3 4 A 11 VPW nch L=4e-08 W=4e-07 
M4 VSS B 5 VPW nch L=4e-08 W=3.35e-07 
M5 5 A VSS VPW nch L=4e-08 W=3.35e-07 
M6 6 4 5 VPW nch L=4e-08 W=3.35e-07 
M7 S 6 VSS VPW nch L=4e-08 W=2.2e-07 
M8 VSS 6 S VPW nch L=4e-08 W=2.2e-07 
M9 CO 4 VDD VNW pch L=4e-08 W=2.85e-07 
M10 VDD 4 CO VNW pch L=4e-08 W=2.85e-07 
M11 4 B VDD VNW pch L=4e-08 W=3.45e-07 
M12 VDD A 4 VNW pch L=4e-08 W=3.45e-07 
M13 10 B VDD VNW pch L=4e-08 W=3.45e-07 
M14 6 A 10 VNW pch L=4e-08 W=3.45e-07 
M15 VDD 4 6 VNW pch L=4e-08 W=1.85e-07 
M16 S 6 VDD VNW pch L=4e-08 W=2.85e-07 
M17 VDD 6 S VNW pch L=4e-08 W=2.85e-07 
.ENDS


.SUBCKT ADDH_X2M_A9TR CO S VDD VNW VPW VSS A B
M0 CO 4 VSS VPW nch L=4e-08 W=3.1e-07 
M1 VSS 4 CO VPW nch L=4e-08 W=3.1e-07 
M2 11 B VSS VPW nch L=4e-08 W=4e-07 
M3 4 A 11 VPW nch L=4e-08 W=4e-07 
M4 VSS B 5 VPW nch L=4e-08 W=4e-07 
M5 5 A VSS VPW nch L=4e-08 W=4e-07 
M6 6 4 5 VPW nch L=4e-08 W=4e-07 
M7 S 6 VSS VPW nch L=4e-08 W=3.1e-07 
M8 VSS 6 S VPW nch L=4e-08 W=3.1e-07 
M9 CO 4 VDD VNW pch L=4e-08 W=4e-07 
M10 VDD 4 CO VNW pch L=4e-08 W=4e-07 
M11 4 B VDD VNW pch L=4e-08 W=3.45e-07 
M12 VDD A 4 VNW pch L=4e-08 W=3.45e-07 
M13 10 B VDD VNW pch L=4e-08 W=3.8e-07 
M14 6 A 10 VNW pch L=4e-08 W=3.8e-07 
M15 VDD 4 6 VNW pch L=4e-08 W=2.2e-07 
M16 S 6 VDD VNW pch L=4e-08 W=4e-07 
M17 VDD 6 S VNW pch L=4e-08 W=4e-07 
.ENDS


.SUBCKT AND2_X0P5B_A9TR Y VDD VNW VPW VSS A B
M0 7 A 1 VPW nch L=4e-08 W=1.2e-07 
M1 VSS B 7 VPW nch L=4e-08 W=1.2e-07 
M2 Y 1 VSS VPW nch L=4e-08 W=1.2e-07 
M3 1 A VDD VNW pch L=4e-08 W=1.4e-07 
M4 VDD B 1 VNW pch L=4e-08 W=1.4e-07 
M5 Y 1 VDD VNW pch L=4e-08 W=2.1e-07 
.ENDS


.SUBCKT AND2_X0P5M_A9TR Y VDD VNW VPW VSS A B
M0 7 A 1 VPW nch L=4e-08 W=1.4e-07 
M1 VSS B 7 VPW nch L=4e-08 W=1.4e-07 
M2 Y 1 VSS VPW nch L=4e-08 W=1.55e-07 
M3 1 A VDD VNW pch L=4e-08 W=1.2e-07 
M4 VDD B 1 VNW pch L=4e-08 W=1.2e-07 
M5 Y 1 VDD VNW pch L=4e-08 W=2e-07 
.ENDS


.SUBCKT AND2_X0P7B_A9TR Y VDD VNW VPW VSS A B
M0 7 A 1 VPW nch L=4e-08 W=1.25e-07 
M1 VSS B 7 VPW nch L=4e-08 W=1.25e-07 
M2 Y 1 VSS VPW nch L=4e-08 W=1.6e-07 
M3 1 A VDD VNW pch L=4e-08 W=1.45e-07 
M4 VDD B 1 VNW pch L=4e-08 W=1.45e-07 
M5 Y 1 VDD VNW pch L=4e-08 W=2.85e-07 
.ENDS


.SUBCKT AND2_X0P7M_A9TR Y VDD VNW VPW VSS A B
M0 7 A 1 VPW nch L=4e-08 W=1.4e-07 
M1 VSS B 7 VPW nch L=4e-08 W=1.4e-07 
M2 Y 1 VSS VPW nch L=4e-08 W=2.2e-07 
M3 1 A VDD VNW pch L=4e-08 W=1.2e-07 
M4 VDD B 1 VNW pch L=4e-08 W=1.2e-07 
M5 Y 1 VDD VNW pch L=4e-08 W=2.85e-07 
.ENDS


.SUBCKT AND2_X11B_A9TR Y VDD VNW VPW VSS A B
M0 7 B VSS VPW nch L=4e-08 W=3.45e-07 
M1 3 A 7 VPW nch L=4e-08 W=3.45e-07 
M2 8 A 3 VPW nch L=4e-08 W=3.45e-07 
M3 VSS B 8 VPW nch L=4e-08 W=3.45e-07 
M4 9 B VSS VPW nch L=4e-08 W=3.45e-07 
M5 3 A 9 VPW nch L=4e-08 W=3.45e-07 
M6 10 A 3 VPW nch L=4e-08 W=3.45e-07 
M7 VSS B 10 VPW nch L=4e-08 W=3.45e-07 
M8 Y 3 VSS VPW nch L=4e-08 W=3.55e-07 
M9 VSS 3 Y VPW nch L=4e-08 W=3.55e-07 
M10 Y 3 VSS VPW nch L=4e-08 W=3.55e-07 
M11 VSS 3 Y VPW nch L=4e-08 W=3.55e-07 
M12 Y 3 VSS VPW nch L=4e-08 W=3.55e-07 
M13 VSS 3 Y VPW nch L=4e-08 W=3.55e-07 
M14 Y 3 VSS VPW nch L=4e-08 W=3.55e-07 
M15 3 B VDD VNW pch L=4e-08 W=4e-07 
M16 VDD A 3 VNW pch L=4e-08 W=4e-07 
M17 3 A VDD VNW pch L=4e-08 W=4e-07 