* 
* No part of this file can be released without the consent of SMIC.
*
************************************************************************************************************
* SMIC 0.11um Mixed Signal 1P6M(1P5M, 1P7M, 1P8M) 1.2V/3.3V SPICE model (for HSPICE only) * 
************************************************************************************************************
*
* Release version    : 1.14
*
* Release date       : 03/28/2016
*
* Simulation tool    : Synopsys Star-HSPICE version I-2013.12
*
*  Inductor   :
* *  *------------------------*-----------------------------------------------------------------------------------------------------*
*    |  Turn, Radius & Width  |T=1~3 step 0.5,W=5~13.5um,R=1.7071*W+16.378~120um;T=3.5~5.0 step 0.5,W=5~8um,R=1.7071*W+16.378~120um |
* *  *------------------------*-----------------------------------------------------------------------------------------------------*
*    |        Model Name      |     diff_ind_rf_pgs_n                            							      	|   
* *  *------------------------*-----------------------------------------------------------------------------------------------------*
.subckt diff_ind_rf_pgs_n PLUS MINUS r=6e-05 w=8e-06 n=3
.param radius_='0.00833333*(r/1e-06-0)' w_='0.0666667*(w/1e-06-0)'
.param T51='(1-abs(sgn(n-(1.5))))'
.param T52='(min(sgn(radius_-(0.416958))+1,1))'
.param T53='(min(sgn(w_+7.291667e-01*radius_-(0.904432))+1,1))'
.param T54='(min(sgn(w_-(0.6004))+1,1))'
.param T55='(min(sgn(radius_-(0.416375))+1,1))'
.param T56='(min(sgn(radius_-(0.708625))+1,1))'
.param T57='(min(sgn(w_+7.291667e-01*radius_-(0.903207))+1,1))'
.param T58='(min(sgn(w_-(0.5996))+1,1))'
.param T59='(min(sgn(radius_-(0.708042))+1,1))'
.param T60='(1-abs(sgn(n-(1))))'
.param T61='(1-abs(sgn(n-(2.5))))'
.param T62='(1-abs(sgn(n-(2))))'
.param T63='(1-abs(sgn(n-(3.5))))'
.param T64='(1-abs(sgn(n-(3))))'
.param T65='(1-abs(sgn(n-(4.5))))'
.param T66='(1-abs(sgn(n-(4))))'
.param T67='(1-abs(sgn(n-(5))))'
.param S0='T51*(1-T52)*(1-T53)'
.param noS0='(1-S0)'
.param S1='T51*(1-T54)*T55*(1-T56)*noS0'
.param noS1='(1-S1)*noS0'
.param S2='T51*T57*T58*(1-T56)*noS1'
.param noS2='(1-S2)*noS1'
.param S3='T51*(1-T54)*T59*noS2'
.param noS3='(1-S3)*noS2'
.param S4='T51*T59*T58*noS3'
.param noS4='(1-S4)*noS3'
.param S5='T60*(1-T52)*(1-T53)*noS4'
.param noS5='(1-S5)*noS4'
.param S6='T60*(1-T54)*T55*(1-T56)*noS5'
.param noS6='(1-S6)*noS5'
.param S7='T60*T57*T58*(1-T56)*noS6'
.param noS7='(1-S7)*noS6'
.param S8='T60*(1-T54)*T59*noS7'
.param noS8='(1-S8)*noS7'
.param S9='T60*T59*T58*noS8'
.param noS9='(1-S9)*noS8'
.param S10='T61*(1-T52)*(1-T53)*noS9'
.param noS10='(1-S10)*noS9'
.param S11='T61*(1-T54)*T55*(1-T56)*noS10'
.param noS11='(1-S11)*noS10'
.param S12='T61*T57*T58*(1-T56)*noS11'
.param noS12='(1-S12)*noS11'
.param S13='T61*(1-T54)*T59*noS12'
.param noS13='(1-S13)*noS12'
.param S14='T61*T59*T58*noS13'
.param noS14='(1-S14)*noS13'
.param S15='T62*(1-T52)*(1-T53)*noS14'
.param noS15='(1-S15)*noS14'
.param S16='T62*(1-T54)*T55*(1-T56)*noS15'
.param noS16='(1-S16)*noS15'
.param S17='T62*T57*T58*(1-T56)*noS16'
.param noS17='(1-S17)*noS16'
.param S18='T62*(1-T54)*T59*noS17'
.param noS18='(1-S18)*noS17'
.param S19='T62*T59*T58*noS18'
.param noS19='(1-S19)*noS18'
.param S20='T63*(1-T52)*noS19'
.param noS20='(1-S20)*noS19'
.param S21='T63*T55*(1-T56)*noS20'
.param noS21='(1-S21)*noS20'
.param S22='T63*T59*noS21'
.param noS22='(1-S22)*noS21'
.param S23='T64*(1-T52)*(1-T53)*noS22'
.param noS23='(1-S23)*noS22'
.param S24='T64*(1-T54)*T55*(1-T56)*noS23'
.param noS24='(1-S24)*noS23'
.param S25='T64*T57*T58*(1-T56)*noS24'
.param noS25='(1-S25)*noS24'
.param S26='T64*(1-T54)*T59*noS25'
.param noS26='(1-S26)*noS25'
.param S27='T64*T59*T58*noS26'
.param noS27='(1-S27)*noS26'
.param S28='T65*(1-T52)*noS27'
.param noS28='(1-S28)*noS27'
.param S29='T65*T55*(1-T56)*noS28'
.param noS29='(1-S29)*noS28'
.param S30='T65*T59*noS29'
.param noS30='(1-S30)*noS29'
.param S31='T66*(1-T52)*noS30'
.param noS31='(1-S31)*noS30'
.param S32='T66*T55*(1-T56)*noS31'
.param noS32='(1-S32)*noS31'
.param S33='T66*T59*noS32'
.param noS33='(1-S33)*noS32'
.param S34='T67*(1-T52)*noS33'
.param noS34='(1-S34)*noS33'
.param S35='T67*T55*(1-T56)*noS34'
.param noS35='(1-S35)*noS34'
.param S36='T67*T59*noS35'
.param noS36='(1-S36)*noS35'
.param V0_part1='0.000000e+00*S0+(-2.188913e+00)*S1+(-1.222321e+01)*S2+1.266025e+00*S3+(-8.910136e+00)*S4+0.000000e+00*S5+0.000000e+00*S6+0.000000e+00*S7+0.000000e+00*S8+0.000000e+00*S9'
.param V0_part2='V0_part1+2.850805e-01*S10+3.686949e+00*S11+5.663831e+00*S12+6.850846e+00*S13+(-2.980274e+01)*S14+(-4.343037e+00)*S15+(-4.894421e+00)*S16+(-2.723354e+00)*S17+(-3.417343e-01)*S18+(-2.290001e+00)*S19'
.param V0_part3='V0_part2+2.577640e+00*S20+3.943746e+00*S21+(-2.586079e+00)*S22+1.638807e-01*S23+8.985351e+00*S24+0.000000e+00*S25+(-3.155055e+01)*S26+(-2.131377e+01)*S27+(-3.610296e+00)*S28+6.419885e+00*S29'
.param V0='V0_part3+6.613859e+00*S30+4.907798e+00*S31+1.207101e+01*S32+(-1.543649e+01)*S33+(-4.671759e+00)*S34+1.444530e+01*S35+2.336190e+01*S36'
.param V1_part1='0.000000e+00*S0+1.558597e+01*S1+2.929961e+01*S2+2.101637e+01*S3+1.952267e+01*S4+0.000000e+00*S5+0.000000e+00*S6+0.000000e+00*S7+0.000000e+00*S8+0.000000e+00*S9'
.param V1_part2='V1_part1+2.497215e+01*S10+2.300462e+01*S11+2.051031e+01*S12+2.237192e+01*S13+5.938577e+01*S14+3.223314e+01*S15+2.751532e+01*S16+2.771719e+01*S17+3.032280e+01*S18+2.337416e+01*S19'
.param V1_part3='V1_part2+5.113689e+01*S20+4.788171e+01*S21+6.519320e+01*S22+6.032734e+01*S23+2.519095e+01*S24+0.000000e+00*S25+7.047157e+01*S26+4.684035e+01*S27+1.033268e+02*S28+7.632438e+01*S29'
.param V1='V1_part3+7.604024e+01*S30+6.027022e+01*S31+5.376599e+01*S32+8.972297e+01*S33+1.222638e+02*S34+8.461609e+01*S35+7.985180e+01*S36'
.param V2_part1='0.000000e+00*S0+(-1.934879e+00)*S1+6.221866e+00*S2+(-2.162807e+01)*S3+1.828117e+00*S4+0.000000e+00*S5+0.000000e+00*S6+0.000000e+00*S7+0.000000e+00*S8+0.000000e+00*S9'
.param V2_part2='V2_part1+9.270080e-01*S10+(-8.996662e+00)*S11+(-9.583669e+00)*S12+(-1.874151e+01)*S13+1.457216e+01*S14+(-1.320362e+00)*S15+3.270971e-01*S16+(-3.943386e+00)*S17+(-2.762510e+01)*S18+(-2.911584e+00)*S19'
.param V2_part3='V2_part2+2.686540e+00*S20+(-1.079198e+00)*S21+(-2.226540e+00)*S22+9.492091e-01*S23+(-1.809293e+01)*S24+0.000000e+00*S25+2.199950e+01*S26+1.947594e+01*S27+2.305971e+01*S28+2.291534e+00*S29'
.param V2='V2_part3+(-3.729510e+00)*S30+(-1.742953e+00)*S31+(-2.173379e+01)*S32+1.805506e+00*S33+3.174499e+01*S34+(-1.871980e+01)*S35+(-3.992889e+01)*S36'
.param V3_part1='3.382088e-01*S0+(-4.271846e-01)*S1+(-3.309507e-01)*S2+(-1.191771e+00)*S3+(-3.026173e-01)*S4+(-1.564318e-01)*S5+(-2.601445e-01)*S6+(-1.082656e-01)*S7+(-4.552855e-01)*S8+(-3.320446e-01)*S9'
.param V3_part2='V3_part1+(-2.884163e-01)*S10+(-1.624855e+00)*S11+(-1.542167e-01)*S12+(-1.639843e+00)*S13+(-6.046250e-01)*S14+(-2.425435e-01)*S15+(-3.832261e-01)*S16+(-2.031645e-01)*S17+(-8.397946e-01)*S18+(-6.205529e-01)*S19'
.param V3_part3='V3_part2+(-2.612782e-01)*S20+(-5.240519e-01)*S21+(-8.624852e+00)*S22+(-2.075498e-02)*S23+(-4.819097e-01)*S24+(-2.436149e-01)*S25+(-1.417964e+00)*S26+(-7.174262e-01)*S27+1.135721e+00*S28+(-4.561517e-01)*S29'
.param V3='V3_part3+(-1.269719e+00)*S30+2.095714e-01*S31+(-4.305274e-01)*S32+(-8.070793e+00)*S33+(-2.101369e-01)*S34+(-5.985787e-01)*S35+(-1.434599e+00)*S36'
.param V4_part1='1.082494e+00*S0+3.445881e+00*S1+3.498244e-01*S2+6.531851e-01*S3+7.761950e-01*S4+6.926253e-01*S5+7.132896e-01*S6+3.622430e-01*S7+8.167986e-01*S8+6.412253e-01*S9'
.param V4_part2='V4_part1+(-3.657466e+00)*S10+1.527639e+00*S11+7.134715e-01*S12+(-1.884475e+00)*S13+1.408899e+00*S14+1.368132e+00*S15+1.462114e+00*S16+7.845700e-01*S17+1.492018e+00*S18+4.829800e-01*S19'
.param V4_part3='V4_part2+1.976063e+00*S20+2.527356e+00*S21+1.188260e+00*S22+1.234614e+00*S23+2.207110e+00*S24+9.904278e-01*S25+(-1.246506e+00)*S26+1.849108e+00*S27+3.643818e+00*S28+3.146511e+00*S29'
.param V4='V4_part3+3.948827e+00*S30+3.389348e+00*S31+2.794748e+00*S32+(-2.412462e-01)*S33+1.912805e+00*S34+3.474482e+00*S35+4.167145e+00*S36'
.param V5_part1='8.515581e-02*S0+(-4.620254e-02)*S1+7.402240e-01*S2+1.609091e+00*S3+2.430989e-01*S4+5.956362e-02*S5+8.890476e-02*S6+7.903161e-02*S7+1.208175e-01*S8+1.169772e-01*S9'
.param V5_part2='V5_part1+2.976188e+00*S10+1.822768e+00*S11+3.057848e-01*S12+4.855744e+00*S13+4.828337e-01*S14+1.244481e-01*S15+1.757368e-01*S16+1.924777e-01*S17+2.992184e-01*S18+1.152313e+00*S19'
.param V5_part3='V5_part2+2.719205e-01*S20+2.951137e-01*S21+6.552327e+00*S22+9.794549e-01*S23+2.597345e-01*S24+3.192219e-01*S25+3.888535e+00*S26+5.476166e-01*S27+1.253428e+00*S28+3.501540e-01*S29'
.param V5='V5_part3+4.928423e-01*S30+1.601172e+00*S31+3.017539e-01*S32+7.354509e+00*S33+1.854546e+00*S34+4.607935e-01*S35+6.002647e-01*S36'
.param V6_part1='(-9.178359e-03)*S0+(-1.809311e-02)*S1+(-3.469446e-03)*S2+(-2.409103e-02)*S3+(-3.385986e-02)*S4+(-9.275531e-03)*S5+(-1.805718e-02)*S6+(-9.484982e-03)*S7+(-3.438445e-02)*S8+(-1.927470e-02)*S9'
.param V6_part2='V6_part1+3.632143e-01*S10+(-9.597518e-03)*S11+(-3.454997e-02)*S12+3.443363e-01*S13+(-1.417962e-01)*S14+(-1.218714e-02)*S15+(-5.491354e-02)*S16+(-2.988085e-02)*S17+(-9.804144e-02)*S18+(-7.730735e-03)*S19'
.param V6_part3='V6_part2+(-7.418317e-02)*S20+(-1.950086e-01)*S21+3.926309e-01*S22+(-3.502991e-02)*S23+(-1.204508e-01)*S24+(-6.806617e-02)*S25+3.257160e-01*S26+(-2.089747e-01)*S27+(-5.148758e-02)*S28+(-3.138669e-01)*S29'
.param V6='V6_part3+(-5.716185e-01)*S30+(-3.768676e-02)*S31+(-2.365265e-01)*S32+3.884376e-01*S33+(-2.050724e-02)*S34+(-3.479937e-01)*S35+(-6.295238e-01)*S36'
.param V7_part1='6.833163e-01*S0+7.561579e-01*S1+6.675984e-01*S2+8.339878e-01*S3+8.590395e-01*S4+3.163946e-01*S5+3.454767e-01*S6+3.068772e-01*S7+3.726964e-01*S8+3.456088e-01*S9'
.param V7_part2='V7_part1+1.719641e+00*S10+1.824388e+00*S11+1.743307e+00*S12+1.831417e+00*S13+2.141787e+00*S14+9.694227e-01*S15+1.195592e+00*S16+1.060461e+00*S17+1.309719e+00*S18+1.091236e+00*S19'
.param V7_part3='V7_part2+3.185151e+00*S20+3.533666e+00*S21+3.554583e+00*S22+2.106694e+00*S23+2.532385e+00*S24+2.236702e+00*S25+2.324928e+00*S26+2.741149e+00*S27+4.686802e+00*S28+5.529250e+00*S29'
.param V7='V7_part3+6.193530e+00*S30+3.692982e+00*S31+4.233638e+00*S32+4.193925e+00*S33+5.381640e+00*S34+6.378476e+00*S35+7.119152e+00*S36'
.param V8_part1='(-4.383708e-02)*S0+(-8.597002e-02)*S1+(-4.321802e-02)*S2+(-1.720254e-01)*S3+(-1.063938e-01)*S4+(-2.139286e-02)*S5+(-2.902345e-02)*S6+(-1.906875e-02)*S7+(-4.666726e-02)*S8+(-4.146824e-02)*S9'
.param V8_part2='V8_part1+(-3.947516e-01)*S10+(-2.592933e-01)*S11+(-5.678236e-02)*S12+(-6.730331e-01)*S13+(-1.584772e-01)*S14+(-5.952370e-02)*S15+(-9.025088e-02)*S16+(-3.827326e-02)*S17+(-1.696063e-01)*S18+(-1.626632e-01)*S19'
.param V8_part3='V8_part2+2.085043e-02*S20+2.096491e-02*S21+(-1.477562e+00)*S22+(-1.046401e-01)*S23+(-1.195593e-01)*S24+(-3.596326e-02)*S25+(-7.693320e-01)*S26+(-1.416558e-01)*S27+(-6.009981e-02)*S28+1.855852e-01*S29'
.param V8='V8_part3+(-1.184776e-01)*S30+(-1.206864e-01)*S31+4.719416e-02*S32+(-1.524471e+00)*S33+(-8.566338e-02)*S34+2.481137e-01*S35+(-2.386518e-01)*S36'
.param V9_part1='(-6.758253e-01)*S0+(-8.750606e-01)*S1+(-2.485939e-01)*S2+(-1.091367e+00)*S3+(-1.086963e+00)*S4+(-1.531793e-01)*S5+(-9.523292e-01)*S6+(-3.526650e-01)*S7+(-8.538565e-01)*S8+(-3.839888e-01)*S9'
.param V9_part2='V9_part1+(-4.145268e-01)*S10+(-1.047160e+00)*S11+(-7.561890e-03)*S12+(-1.805322e+00)*S13+(-1.270891e+00)*S14+4.271534e-01*S15+(-2.659487e+00)*S16+(-1.127542e+00)*S17+(-2.332753e+00)*S18+(-1.050307e+00)*S19'
.param V9_part3='V9_part2+(-1.888562e+00)*S20+(-1.349614e+01)*S21+(-2.259070e+00)*S22+(-6.137476e-01)*S23+(-4.461402e+00)*S24+(-1.177431e-01)*S25+(-2.247320e+00)*S26+(-1.552832e+00)*S27+(-7.676994e-01)*S28+(-1.610898e+01)*S29'
.param V9='V9_part3+(-1.343332e+01)*S30+(-6.856369e-01)*S31+(-1.290856e+01)*S32+(-2.577915e+00)*S33+(-8.490440e-01)*S34+(-1.148649e+01)*S35+(-1.379285e+01)*S36'
.param V10_part1='1.985890e+00*S0+9.545226e-01*S1+1.811707e+00*S2+1.932202e+00*S3+9.240795e-01*S4+(-1.848339e-01)*S5+3.368350e-01*S6+1.823905e-02*S7+(-4.263155e-01)*S8+3.986291e-02*S9'
.param V10_part2='V10_part1+3.144473e+00*S10+3.563031e+00*S11+3.229059e+00*S12+3.091691e+00*S13+1.407929e+00*S14+(-3.169985e+00)*S15+1.849462e+00*S16+3.204414e-01*S17+2.950336e-02*S18+2.093796e+00*S19'
.param V10_part3='V10_part2+9.682997e+00*S20+4.780046e+00*S21+5.164032e+00*S22+4.292168e+00*S23+3.617757e+00*S24+(-2.744105e-01)*S25+4.061435e+00*S26+1.712774e+00*S27+5.978439e+00*S28+5.490714e+00*S29'
.param V10='V10_part3+3.472945e+00*S30+4.802567e+00*S31+6.584434e+00*S32+5.658433e+00*S33+7.649563e+00*S34+7.350689e+00*S35+4.648340e+00*S36'
.param V11_part1='4.664570e-01*S0+8.251728e-01*S1+2.216757e-01*S2+5.138601e-01*S3+2.023354e+00*S4+6.271485e-01*S5+1.072014e+00*S6+1.161425e+00*S7+1.558678e+00*S8+1.086997e+00*S9'
.param V11_part2='V11_part1+3.184116e-01*S10+5.582572e-01*S11+4.211039e+00*S12+8.056062e-01*S13+2.579952e+00*S14+2.307703e+00*S15+2.493685e+00*S16+3.200584e+00*S17+3.779531e+00*S18+6.862381e-01*S19'
.param V11_part3='V11_part2+4.570256e+00*S20+9.537577e+00*S21+9.165855e-01*S22+4.357983e-01*S23+4.006873e+00*S24+6.437970e+00*S25+8.971227e-01*S26+2.599221e+00*S27+8.012144e-01*S28+1.181164e+01*S29'
.param V11='V11_part3+1.042663e+01*S30+6.295279e-01*S31+8.637656e+00*S32+1.053254e+00*S33+7.814198e-01*S34+8.813074e+00*S35+1.069784e+01*S36'
.param V12_part1='(-5.646991e-03)*S0+8.118506e-02*S1+(-1.227034e-02)*S2+(-1.186737e-01)*S3+(-1.625476e-02)*S4+3.335165e-03*S5+5.604596e-03*S6+1.054736e-02*S7+(-6.801009e-04)*S8+(-1.081705e-02)*S9'
.param V12_part2='V12_part1+(-1.889167e-02)*S10+(-1.624207e-01)*S11+(-1.865629e-03)*S12+(-2.810779e-01)*S13+(-3.631755e-02)*S14+2.801820e-01*S15+(-2.813407e-02)*S16+7.638286e-02*S17+5.963018e-02*S18+(-1.667878e-01)*S19'
.param V12_part3='V12_part2+(-7.780753e-02)*S20+3.761305e-01*S21+(-7.607695e-01)*S22+(-1.114816e-01)*S23+(-4.563381e-02)*S24+2.424058e-01*S25+(-3.771362e-01)*S26+(-8.224900e-02)*S27+(-1.762747e-01)*S28+5.253212e-01*S29'
.param V12='V12_part3+5.674396e-01*S30+(-1.625236e-01)*S31+1.293946e-01*S32+(-8.188660e-01)*S33+(-2.661477e-01)*S34+1.381255e-02*S35+5.658013e-02*S36'
.param V13_part1='1.545670e+00*S0+1.555944e+00*S1+1.487378e+00*S2+1.824851e+00*S3+1.515025e+00*S4+5.382520e-01*S5+5.966428e-01*S6+5.460831e-01*S7+6.299755e-01*S8+6.023586e-01*S9'
.param V13_part2='V13_part1+3.231111e+00*S10+3.960172e+00*S11+3.421932e+00*S12+4.295828e+00*S13+3.616184e+00*S14+1.961994e+00*S15+2.165537e+00*S16+1.918596e+00*S17+2.289883e+00*S18+2.508926e+00*S19'
.param V13_part3='V13_part2+6.342498e+00*S20+6.560658e+00*S21+7.930114e+00*S22+4.592601e+00*S23+4.657388e+00*S24+4.201294e+00*S25+5.498596e+00*S26+4.620085e+00*S27+9.991043e+00*S28+1.028386e+01*S29'
.param V13='V13_part3+1.125094e+01*S30+7.670970e+00*S31+7.916265e+00*S32+9.446110e+00*S33+1.161675e+01*S34+1.192692e+01*S35+1.305156e+01*S36'
.param V14_part1='(-1.164187e-01)*S0+(-2.910763e-01)*S1+(-8.472639e-02)*S2+(-2.829068e-01)*S3+(-2.184733e-01)*S4+(-4.964753e-02)*S5+(-9.542180e-02)*S6+(-4.975470e-02)*S7+(-1.298068e-01)*S8+(-8.198766e-02)*S9'
.param V14_part2='V14_part1+(-1.767027e-01)*S10+(-2.482124e-01)*S11+(-1.910247e-01)*S12+(-5.515618e-01)*S13+(-4.951622e-01)*S14+(-3.312513e-01)*S15+(-3.063804e-01)*S16+(-1.938236e-01)*S17+(-5.600537e-01)*S18+(-2.124790e-01)*S19'
.param V14_part3='V14_part2+(-2.483154e-01)*S20+(-1.562971e+00)*S21+(-4.299175e-01)*S22+(-8.660448e-02)*S23+(-6.541776e-01)*S24+(-3.852601e-01)*S25+(-6.346846e-01)*S26+(-5.822711e-01)*S27+3.303193e-01*S28+(-2.129807e+00)*S29'
.param V14='V14_part3+(-3.613834e+00)*S30+1.089078e-01*S31+(-1.364143e+00)*S32+(-7.541026e-01)*S33+6.883644e-01*S34+(-1.361851e+00)*S35+(-3.112719e+00)*S36'
.param V15_part1='3.852049e+00*S0+3.689209e+00*S1+6.274034e-01*S2+1.378736e+00*S3+1.891388e+00*S4+4.385865e-02*S5+(-8.369962e-02)*S6+2.784376e-01*S7+(-1.761560e+00)*S8+(-1.289785e+00)*S9'
.param V15_part2='V15_part1+(-1.294789e-01)*S10+7.389699e-01*S11+7.322539e-01*S12+(-3.147867e-01)*S13+1.298601e+00*S14+(-1.418962e-01)*S15+5.704166e-01*S16+7.338866e-02*S17+(-1.231387e-01)*S18+9.286650e-01*S19'
.param V15_part3='V15_part2+8.103033e-01*S20+(-3.145247e-01)*S21+(-4.297708e-01)*S22+9.386627e-01*S23+3.622025e-01*S24+8.090447e-02*S25+(-5.771549e-01)*S26+1.563673e+00*S27+1.187950e+00*S28+(-2.622908e-01)*S29'
.param V15='V15_part3+(-3.688760e-01)*S30+7.715072e-01*S31+(-8.133342e-02)*S32+(-6.661839e-01)*S33+7.199981e-01*S34+7.097110e-01*S35+1.555650e-01*S36'
.param V16_part1='(-1.407897e+00)*S0+(-7.714105e-01)*S1+1.523557e+00*S2+6.725178e-01*S3+(-1.675887e-01)*S4+2.958450e+00*S5+2.278677e+00*S6+1.257942e+00*S7+3.987252e+00*S8+3.669764e+00*S9'
.param V16_part2='V16_part1+2.543869e+00*S10+1.458508e+00*S11+3.772085e-01*S12+1.317286e+00*S13+3.543203e-01*S14+3.852867e+00*S15+1.797758e+00*S16+1.567939e+00*S17+1.970192e+00*S18+6.621261e-01*S19'
.param V16_part3='V16_part2+7.729232e-01*S20+2.017569e+00*S21+1.659762e+00*S22+1.482272e+00*S23+1.647716e+00*S24+1.106200e+00*S25+1.749144e+00*S26+2.089900e-01*S27+1.520128e+00*S28+1.939707e+00*S29'
.param V16='V16_part3+2.059199e+00*S30+1.160851e+00*S31+1.985786e+00*S32+2.097422e+00*S33+2.072520e+00*S34+1.779016e+00*S35+2.323083e+00*S36'
.param V17_part1='(-1.996081e+00)*S0+(-1.882683e+00)*S1+2.037182e+00*S2+(-1.427535e-01)*S3+7.656564e-01*S4+1.110008e+00*S5+1.089440e+00*S6+6.792394e-01*S7+1.713784e+00*S8+1.513722e+00*S9'
.param V17_part2='V17_part1+1.271494e+00*S10+(-2.267441e-01)*S11+(-1.328657e-01)*S12+1.387605e-01*S13+(-1.483100e-02)*S14+1.280523e+00*S15+7.383108e-01*S16+2.452597e-01*S17+5.250735e-02*S18+3.906910e-02*S19'
.param V17_part3='V17_part2+(-5.579494e-01)*S20+9.270595e-01*S21+6.294347e-01*S22+(-2.249989e-02)*S23+8.473955e-01*S24+1.044139e-01*S25+4.626887e-01*S26+(-6.805874e-02)*S27+(-8.566468e-01)*S28+1.168070e+00*S29'
.param V17='V17_part3+7.288186e-01*S30+(-4.293945e-01)*S31+1.338553e+00*S32+8.763015e-01*S33+2.617258e-03*S34+4.043942e-02*S35+2.593425e-02*S36'
.param V18_part1='(-1.406908e+00)*S0+(-8.234607e-01)*S1+(-9.568327e-02)*S2+(-1.412503e+00)*S3+(-8.281259e-01)*S4+(-1.198460e-02)*S5+1.491933e+00*S6+(-2.128034e+01)*S7+1.802392e+00*S8+1.683354e+00*S9'
.param V18_part2='V18_part1+(-1.534031e+00)*S10+(-2.961085e+00)*S11+(-4.521273e+00)*S12+(-4.346002e+00)*S13+1.769887e+00*S14+1.052313e-01*S15+(-4.130523e-01)*S16+(-1.940281e+00)*S17+(-1.477554e+00)*S18+(-2.275629e+00)*S19'
.param V18_part3='V18_part2+(-2.480659e+00)*S20+(-3.942189e+00)*S21+(-2.808569e+00)*S22+(-1.094926e+00)*S23+(-3.458240e+00)*S24+(-1.900145e+00)*S25+3.367659e+00*S26+2.163170e-01*S27+(-9.500672e-01)*S28+(-4.850446e+00)*S29'
.param V18='V18_part3+(-6.959113e+00)*S30+(-2.685733e+00)*S31+(-4.467860e+00)*S32+(-1.851746e-02)*S33+(-9.812939e-01)*S34+(-5.745217e+00)*S35+(-8.253955e+00)*S36'
.param V19_part1='8.237290e+00*S0+4.837152e+00*S1+3.347280e+00*S2+2.479039e+00*S3+4.085802e+00*S4+3.873746e+00*S5+(-3.156997e-01)*S6+3.751004e+01*S7+(-2.221536e-01)*S8+4.459656e-01*S9'
.param V19_part2='V19_part1+8.638049e+00*S10+9.008084e+00*S11+1.231766e+01*S12+9.146378e+00*S13+3.277702e+00*S14+2.514278e+00*S15+3.046456e+00*S16+4.257060e+00*S17+1.993579e+00*S18+4.712812e+00*S19'
.param V19_part3='V19_part2+1.080063e+01*S20+1.125224e+01*S21+6.773544e+00*S22+3.569312e+00*S23+1.005089e+01*S24+1.605102e+01*S25+1.659043e+00*S26+8.012115e+00*S27+8.148362e+00*S28+1.352925e+01*S29'
.param V19='V19_part3+1.342689e+01*S30+1.146268e+01*S31+1.219032e+01*S32+4.533974e+00*S33+7.239029e+00*S34+1.455521e+01*S35+1.416593e+01*S36'
.param V20_part1='4.200252e+00*S0+3.796446e+00*S1+3.328199e+00*S2+8.998533e+00*S3+5.272100e+00*S4+4.080515e+00*S5+3.239917e+00*S6+3.478093e+01*S7+2.462855e+00*S8+1.933770e+00*S9'
.param V20_part2='V20_part1+7.194424e+00*S10+1.059705e+01*S11+1.050346e+01*S12+1.400711e+01*S13+7.476215e+00*S14+3.434202e+00*S15+4.686578e+00*S16+7.145367e+00*S17+1.125650e+01*S18+7.254425e+00*S19'
.param V20_part3='V20_part2+1.120062e+01*S20+1.492410e+01*S21+1.695701e+01*S22+6.890498e+00*S23+1.197334e+01*S24+8.778336e+00*S25+5.990888e+00*S26+6.714826e+00*S27+1.011699e+01*S28+1.918733e+01*S29'
.param V20='V20_part3+2.505166e+01*S30+1.258193e+01*S31+1.651052e+01*S32+1.480452e+01*S33+1.069515e+01*S34+2.167387e+01*S35+2.929427e+01*S36'
.param V21_part1='2.745424e-01*S0+8.471682e+00*S1+(-2.337538e-02)*S2+3.154832e-01*S3+6.546138e-01*S4+2.414722e+01*S5+6.373414e+01*S6+(-2.405200e+03)*S7+4.201108e+01*S8+2.792896e+01*S9'
.param V21_part2='V21_part1+3.070367e-01*S10+2.082462e-01*S11+3.752652e-01*S12+4.733818e-01*S13+5.720739e-02*S14+1.132745e-01*S15+7.468935e-01*S16+3.982257e+01*S17+1.505161e+00*S18+1.187522e+00*S19'
.param V21_part3='V21_part2+2.024877e-01*S20+6.829275e-01*S21+9.011104e-01*S22+2.079706e+00*S23+2.711643e-01*S24+7.819213e+00*S25+1.448537e+00*S26+5.615862e-01*S27+1.077105e-01*S28+(-2.504431e+00)*S29'
.param V21='V21_part3+(-3.631101e+00)*S30+9.322410e-02*S31+1.955827e-01*S32+3.296495e-01*S33+1.567833e+00*S34+2.261335e-01*S35+3.166740e-01*S36'
.param V22_part1='1.056220e-01*S0+(-5.999912e-01)*S1+2.428859e+01*S2+1.720943e-01*S3+(-1.571102e-01)*S4+(-3.490036e+01)*S5+(-2.790947e-02)*S6+1.000000e+04*S7+(-4.012677e-01)*S8+(-1.018583e+01)*S9'
.param V22_part2='V22_part1+(-7.333863e-01)*S10+(-2.347294e-01)*S11+(-1.193992e-01)*S12+(-2.427500e-01)*S13+1.668950e-01*S14+3.438934e+00*S15+1.598128e-01*S16+3.541002e+00*S17+(-3.924020e-01)*S18+(-5.206302e-01)*S19'
.param V22_part3='V22_part2+(-2.742940e-02)*S20+(-4.722902e-02)*S21+(-3.724956e-01)*S22+3.005187e+00*S23+(-7.406536e-02)*S24+(-8.695194e-01)*S25+(-5.942707e-01)*S26+(-9.657643e-02)*S27+(-5.145079e-02)*S28+(-1.261233e-01)*S29'
.param V22='V22_part3+3.024986e-01*S30+(-1.882240e+00)*S31+(-3.220154e-02)*S32+1.712208e-01*S33+3.921218e+00*S34+4.759271e-02*S35+3.555914e-03*S36'
.param V23_part1='2.270685e-01*S0+(-8.618591e+00)*S1+(-6.897276e+00)*S2+(-1.874723e-01)*S3+7.908639e-03*S4+9.285995e-01*S5+(-5.552773e+01)*S6+(-6.585981e+02)*S7+(-4.128498e+01)*S8+(-1.213009e+01)*S9'
.param V23_part2='V23_part1+9.467855e-01*S10+6.152360e-01*S11+4.131010e-02*S12+1.613675e-01*S13+3.943368e-01*S14+(-3.760529e-01)*S15+(-8.235820e-02)*S16+(-3.659931e+01)*S17+(-8.671235e-01)*S18+5.935648e-01*S19'
.param V23_part3='V23_part2+2.905502e-01*S20+(-3.868636e-01)*S21+(-4.332675e-01)*S22+(-3.160281e+00)*S23+1.281822e-01*S24+(-6.742800e+00)*S25+(-8.821307e-01)*S26+(-1.954009e-01)*S27+4.256433e-01*S28+9.925283e+00*S29'
.param V23='V23_part3+1.225032e+01*S30+3.534723e+00*S31+2.714212e-01*S32+(-5.221038e-01)*S33+(-3.642364e+00)*S34+2.150160e-01*S35+1.451284e-01*S36'
.param V24_part1='(-9.490660e+01)*S0+0.000000e+00*S1+0.000000e+00*S2+2.465373e+00*S3+1.951070e+00*S4+1.812007e+00*S5+0.000000e+00*S6+0.000000e+00*S7+0.000000e+00*S8+0.000000e+00*S9'
.param V24_part2='V24_part1+0.000000e+00*S10+(-5.291126e+01)*S11+1.388469e+02*S12+(-1.920489e+02)*S13+2.620358e+02*S14+0.000000e+00*S15+4.484921e+01*S16+0.000000e+00*S17+0.000000e+00*S18+(-7.371476e+01)*S19'
.param V24_part3='V24_part2+(-2.544525e+01)*S20+(-1.238242e+02)*S21+1.434239e+02*S22+1.007710e+01*S23+0.000000e+00*S24+0.000000e+00*S25+(-6.060881e+02)*S26+0.000000e+00*S27+1.212257e+01*S28+0.000000e+00*S29'
.param V24='V24_part3+1.985649e+02*S30+0.000000e+00*S31+0.000000e+00*S32+0.000000e+00*S33+0.000000e+00*S34+0.000000e+00*S35+1.003806e+03*S36'
.param V25_part1='7.854321e+02*S0+0.000000e+00*S1+0.000000e+00*S2+7.765238e+00*S3+2.176925e+00*S4+1.211421e+02*S5+0.000000e+00*S6+0.000000e+00*S7+0.000000e+00*S8+0.000000e+00*S9'
.param V25_part2='V25_part1+0.000000e+00*S10+6.313866e+02*S11+4.995269e+02*S12+9.859367e+02*S13+3.557757e+02*S14+0.000000e+00*S15+1.623663e+02*S16+0.000000e+00*S17+0.000000e+00*S18+1.482748e+02*S19'
.param V25_part3='V25_part2+8.833340e+01*S20+3.709645e+02*S21+1.449145e+02*S22+2.947820e+01*S23+0.000000e+00*S24+0.000000e+00*S25+1.547768e+03*S26+0.000000e+00*S27+1.504343e+02*S28+0.000000e+00*S29'
.param V25='V25_part3+(-8.562169e+01)*S30+0.000000e+00*S31+0.000000e+00*S32+0.000000e+00*S33+0.000000e+00*S34+0.000000e+00*S35+(-6.115705e+02)*S36'
.param V26_part1='2.623170e+01*S0+0.000000e+00*S1+0.000000e+00*S2+3.660103e+02*S3+1.437672e+00*S4+(-1.677367e+00)*S5+0.000000e+00*S6+0.000000e+00*S7+0.000000e+00*S8+0.000000e+00*S9'
.param V26_part2='V26_part1+0.000000e+00*S10+1.073380e+02*S11+(-8.297399e+01)*S12+(-1.413169e+01)*S13+(-1.684656e+02)*S14+0.000000e+00*S15+(-2.393781e+01)*S16+0.000000e+00*S17+0.000000e+00*S18+1.960578e+01*S19'
.param V26_part3='V26_part2+3.775141e+02*S20+4.456039e+02*S21+3.003157e+02*S22+8.543030e+01*S23+0.000000e+00*S24+0.000000e+00*S25+3.891186e+02*S26+0.000000e+00*S27+6.873966e+01*S28+0.000000e+00*S29'
.param V26='V26_part3+(-2.210773e+01)*S30+0.000000e+00*S31+0.000000e+00*S32+0.000000e+00*S33+0.000000e+00*S34+0.000000e+00*S35+(-3.938299e+02)*S36'
.param V27_part1='(-1.348800e+00)*S0+(-6.794009e-01)*S1+1.283603e-01*S2+(-1.376293e+00)*S3+(-7.898844e-01)*S4+(-2.217211e+00)*S5+1.450490e+00*S6+(-2.099578e+01)*S7+1.799126e+00*S8+1.755340e+00*S9'
.param V27_part2='V27_part1+(-1.477880e+00)*S10+(-2.927744e+00)*S11+(-4.362218e+00)*S12+(-4.411092e+00)*S13+1.661563e+00*S14+1.358398e-01*S15+(-3.952204e-01)*S16+(-1.894300e+00)*S17+(-1.441525e+00)*S18+(-2.432473e+00)*S19'
.param V27_part3='V27_part2+(-2.487202e+00)*S20+(-4.067601e+00)*S21+(-2.734630e+00)*S22+(-1.106972e+00)*S23+(-3.444585e+00)*S24+(-2.445748e+00)*S25+3.429513e+00*S26+(-7.807612e-02)*S27+(-9.679102e-01)*S28+(-4.886981e+00)*S29'
.param V27='V27_part3+(-6.983367e+00)*S30+(-2.751444e+00)*S31+(-4.546702e+00)*S32+(-1.890784e-01)*S33+(-8.221871e-01)*S34+(-5.775420e+00)*S35+(-8.454188e+00)*S36'
.param V28_part1='8.208389e+00*S0+4.954831e+00*S1+3.261913e+00*S2+2.482535e+00*S3+4.046035e+00*S4+6.889255e+00*S5+(-2.626578e-01)*S6+3.812878e+01*S7+(-2.206883e-01)*S8+3.831126e-01*S9'
.param V28_part2='V28_part1+8.590157e+00*S10+8.965724e+00*S11+1.214614e+01*S12+9.207579e+00*S13+3.352810e+00*S14+2.431382e+00*S15+3.024453e+00*S16+4.601927e+00*S17+1.988308e+00*S18+4.958801e+00*S19'
.param V28_part3='V28_part2+1.088370e+01*S20+1.123791e+01*S21+6.697657e+00*S22+3.705959e+00*S23+1.003761e+01*S24+1.642358e+01*S25+1.579996e+00*S26+7.975747e+00*S27+8.153180e+00*S28+1.363225e+01*S29'
.param V28='V28_part3+1.351968e+01*S30+1.135403e+01*S31+1.215511e+01*S32+4.647235e+00*S33+6.823502e+00*S34+1.442116e+01*S35+1.437677e+01*S36'
.param V29_part1='3.803344e+00*S0+3.142188e+00*S1+2.761568e+00*S2+8.606188e+00*S3+4.897572e+00*S4+8.675106e+00*S5+3.224978e+00*S6+3.385138e+01*S7+2.473925e+00*S8+1.909294e+00*S9'
.param V29_part2='V29_part1+6.855074e+00*S10+1.037091e+01*S11+1.016544e+01*S12+1.386441e+01*S13+7.339525e+00*S14+3.166997e+00*S15+4.403787e+00*S16+6.551240e+00*S17+1.094238e+01*S18+6.900456e+00*S19'
.param V29_part3='V29_part2+1.087047e+01*S20+1.502639e+01*S21+1.663402e+01*S22+6.633628e+00*S23+1.192517e+01*S24+9.378518e+00*S25+5.685302e+00*S26+6.878012e+00*S27+9.999010e+00*S28+1.888699e+01*S29'
.param V29='V29_part3+2.467006e+01*S30+1.258495e+01*S31+1.672056e+01*S32+1.481629e+01*S33+1.033587e+01*S34+2.194752e+01*S35+2.936642e+01*S36'
.param V30_part1='3.295310e-01*S0+8.216964e-01*S1+2.178590e+00*S2+4.541641e-01*S3+1.756402e-01*S4+2.536899e+03*S5+5.884991e+01*S6+(-2.375140e+03)*S7+4.368056e+01*S8+2.975449e+01*S9'
.param V30_part2='V30_part1+2.815077e+00*S10+(-3.393844e-01)*S11+4.110278e+00*S12+(-7.059327e+00)*S13+2.213318e+00*S14+7.804800e-01*S15+3.399089e-02*S16+2.068746e+00*S17+1.257192e+00*S18+1.713662e+00*S19'
.param V30_part3='V30_part2+1.543332e+00*S20+5.635855e-01*S21+9.032064e-01*S22+8.259004e-01*S23+(-3.458726e+00)*S24+5.356454e+01*S25+6.618472e-02*S26+1.064092e-01*S27+7.287797e-03*S28+(-2.946750e+00)*S29'
.param V30='V30_part3+(-2.610355e+01)*S30+3.064283e-01*S31+1.988872e-02*S32+4.800537e-01*S33+(-6.288333e-02)*S34+(-4.349757e-01)*S35+(-5.859440e-01)*S36'
.param V31_part1='1.086010e-01*S0+(-3.057809e-01)*S1+(-2.347825e-01)*S2+1.739102e-02*S3+(-2.576133e-01)*S4+(-2.783027e+02)*S5+(-8.800092e-02)*S6+1.000000e+04*S7+(-5.310722e-01)*S8+(-1.193368e+01)*S9'
.param V31_part2='V31_part1+1.338291e+01*S10+(-7.469434e-01)*S11+1.363003e-01*S12+1.426992e-01*S13+(-1.686493e-01)*S14+(-1.860359e-01)*S15+9.929721e-02*S16+(-6.595812e-01)*S17+(-3.038391e-01)*S18+(-1.313970e-01)*S19'
.param V31_part3='V31_part2+4.945008e+00*S20+(-1.861495e-01)*S21+(-2.909852e-01)*S22+5.109467e-02*S23+(-2.003011e+00)*S24+(-1.454681e+00)*S25+(-3.916140e-02)*S26+(-1.667875e-01)*S27+4.518589e-01*S28+2.676408e+02*S29'
.param V31='V31_part3+6.087180e+01*S30+(-4.190330e-01)*S31+1.514451e+01*S32+1.156906e-01*S33+1.415778e+00*S34+(-7.516631e-01)*S35+(-2.521994e-01)*S36'
.param V32_part1='1.990898e-01*S0+1.577529e-01*S1+(-1.108022e+00)*S2+(-1.478959e-01)*S3+8.352192e-01*S4+2.536899e+03*S5+(-4.988054e+01)*S6+(-7.316897e+02)*S7+(-4.308390e+01)*S8+(-1.266772e+01)*S9'
.param V32_part2='V32_part1+(-9.001570e+00)*S10+3.901577e+00*S11+(-3.487174e+00)*S12+2.244370e+01*S13+(-1.572574e+00)*S14+(-1.819756e-01)*S15+1.783731e+00*S16+(-1.957009e-01)*S17+(-6.487942e-01)*S18+(-6.457900e-01)*S19'
.param V32_part3='V32_part2+(-3.705078e+00)*S20+3.441711e-01*S21+(-4.978716e-01)*S22+3.901354e-01*S23+1.613665e+01*S24+(-5.010935e+01)*S25+1.107680e+00*S26+6.353395e-01*S27+4.672734e-01*S28+(-1.996259e+01)*S29'
.param V32='V32_part3+(-1.794818e+01)*S30+7.401353e-01*S31+1.379203e+00*S32+(-8.077692e-01)*S33+1.230285e+00*S34+4.161456e+00*S35+3.765143e+00*S36'
.param V33_part1='(-8.677525e+01)*S0+0.000000e+00*S1+1.053797e+02*S2+2.598984e+01*S3+(-3.016068e+01)*S4+(-3.084670e+00)*S5+0.000000e+00*S6+0.000000e+00*S7+0.000000e+00*S8+0.000000e+00*S9'
.param V33_part2='V33_part1+0.000000e+00*S10+(-2.072342e+01)*S11+8.481381e+01*S12+(-4.719314e+02)*S13+(-5.316338e+01)*S14+5.620633e+01*S15+4.062637e+01*S16+0.000000e+00*S17+(-2.528685e+01)*S18+2.612739e+01*S19'
.param V33_part3='V33_part2+(-9.540693e+00)*S20+(-1.758617e+02)*S21+(-1.061130e+02)*S22+1.111330e+01*S23+(-1.077518e+02)*S24+0.000000e+00*S25+2.900987e+02*S26+6.757793e+01*S27+1.983323e+01*S28+0.000000e+00*S29'