* This file contains 1.2V and 3.3V corner model parameters.
* Five corners are supported: TT, FF, SS, SNFP, and FNSP.
* This file should be used with the model parameter file 'ms011_ms013s_io33_v1p24.mdl', 'ms011_ms013s_io33_v1p24_dio.mdl',
* 'ms011_ms013s_io33_v1p24_mis.mdl','ms011_ms013s_io33_v1p24_bjt.mdl' and 'ms011_ms013s_io33_v1p24_res.ckt'.
* No part of this file can be released without the consent of SMIC.

********************
*  MOS Corner model
********************

.lib tt
.option gmindc=1e-14 scale =0.9
.param
+sigma_mis_a=agauss(0,1,1)
+sigma_mis_b=agauss(0,1,1)
+sigma_mis_c=agauss(0,1,1)
+sigma_mis_d=agauss(0,1,1)

*1.2v core nmos
.subckt n12_mis_ckt d g s b w=1e-6 l=1e-6 sa='sar' sb='sbr' as='asr' ad='adr' ps='psr' pd='pdr' nrd='nrdr' nrs='nrsr' mr=1 mismod=0 
.para 
+dmcgr = 1.9e-7
+sar = 2.25e-006
+sbr = 2.25e-006
+adr = 'sar*w'
+asr = 'sbr*w'
+pdr = '2*(sar+w)'
+psr = '2*(sbr+w)'
+nrdr = 'dmcgr/w'
+nrsr = 'dmcgr/w'

+atox_n12=1.7e-11
+axl_n12=3e-9
+scale_mos = 0.9
+lef = 'l*scale_mos'
+wef = 'w*scale_mos'
+dtox_n12_mis     = 'atox_n12*1/sqrt(lef*wef*1e12*mr)*sigma_mis_a*mismod'
+dxl_n12_mis     = 'axl_n12*1/sqrt(wef*1e6*mr)*sigma_mis_b*mismod'
m1 d g s b n12_mis_ckt w=w l=l sa=sa sb=sb as=as ad=ad ps=ps pd=pd nrd=nrd nrs=nrs m=mr
.inc 'ms011_ms013s_io33_v1p24_mis.mdl' 
.ends n12_mis_ckt

*1.2v core pmos
.subckt p12_mis_ckt d g s b w=1e-6 l=1e-6 sa='sar' sb='sbr' as='asr' ad='adr' ps='psr' pd='pdr' nrd='nrdr' nrs='nrsr' mr=1 mismod=0 
.para
+dmcgr = 1.9e-7
+sar = 2.25e-006
+sbr = 2.25e-006
+adr = 'sar*w'
+asr = 'sbr*w'
+pdr = '2*(sar+w)'
+psr = '2*(sbr+w)'
+nrdr = 'dmcgr/w'
+nrsr = 'dmcgr/w'

+atox_p12=2.85e-11
+axl_p12=8e-10
+scale_mos = 0.9
+lef = 'l*scale_mos'
+wef = 'w*scale_mos'
+dtox_p12_mis='atox_p12*1/sqrt(lef*wef*1e12*mr)*sigma_mis_a*mismod'
+dxl_p12_mis='axl_p12*1/sqrt(wef*1e6*mr)*sigma_mis_b*mismod'
m1 d g s b p12_mis_ckt w=w l=l sa=sa sb=sb as=as ad=ad ps=ps pd=pd nrd=nrd nrs=nrs m=mr
.inc 'ms011_ms013s_io33_v1p24_mis.mdl'
.ends p12_mis_ckt

*3.3v core nmos
.subckt n33_mis_ckt d g s b w=1e-6 l=1e-6 sa='sar' sb='sbr' as='asr' ad='adr' ps='psr' pd='pdr' nrd='nrdr' nrs='nrsr' mr=1 mismod=0 
.para
+dmcgr = 2.1e-7
+sar = 3.32e-006
+sbr = 3.32e-006
+adr = 'sar*w'
+asr = 'sbr*w'
+pdr = '2*(sar+w)'
+psr = '2*(sbr+w)'
+nrdr = 'dmcgr/w'
+nrsr = 'dmcgr/w'

+atox_n33=4e-11
+axl_n33=3e-9
+avth_n33=9.5e-3
+au0_n33=6e-4
+scale_mos = 0.9
+lef = 'l*scale_mos'
+wef = 'w*scale_mos'
+dtox_n33_mis='atox_n33*1/sqrt(lef*wef*1e12*mr)*sigma_mis_a*mismod'
+dxl_n33_mis='axl_n33*1/sqrt(wef*1e6*mr)*sigma_mis_b*mismod'
+dvth_n33_mis='avth_n33*1/sqrt(lef*wef*1e12*mr)*sigma_mis_c*mismod'
+du0_n33_mis='au0_n33*1/sqrt(lef*wef*1e12*mr)*sigma_mis_d*mismod'
m1 d g s b n33_mis_ckt w=w l=l sa=sa sb=sb as=as ad=ad ps=ps pd=pd nrd=nrd nrs=nrs m=mr
.inc 'ms011_ms013s_io33_v1p24_mis.mdl'
.ends n33_mis_ckt

*3.3v core pmos
.subckt p33_mis_ckt d g s b w=1e-6 l=1e-6 sa='sar' sb='sbr' as='asr' ad='adr' ps='psr' pd='pdr' nrd='nrdr' nrs='nrsr' mr=1 mismod=0 
.para
+dmcgr = 2.1e-7
+sar = 3.32e-006
+sbr = 3.32e-006
+adr = 'sar*w'
+asr = 'sbr*w'
+pdr = '2*(sar+w)'
+psr = '2*(sbr+w)'
+nrdr = 'dmcgr/w'
+nrsr = 'dmcgr/w'

+atox_p33=3e-11
+axl_p33=3e-10
+avth_p33=3.5e-3
+au0_p33=1e-4
+scale_mos = 0.9
+lef = 'l*scale_mos'
+wef = 'w*scale_mos'
+dtox_p33_mis='atox_p33*1/sqrt(lef*wef*1e12*mr)*sigma_mis_a*mismod'
+dxl_p33_mis='axl_p33*1/sqrt(wef*1e6*mr)*sigma_mis_b*mismod'
+dvth_p33_mis='avth_p33*1/sqrt(lef*wef*1e12*mr)*sigma_mis_c*mismod'
+du0_p33_mis='au0_p33*1/sqrt(lef*wef*1e12*mr)*sigma_mis_d*mismod'
m1 d g s b p33_mis_ckt w=w l=l sa=sa sb=sb as=as ad=ad ps=ps pd=pd nrd=nrd nrs=nrs m=mr
.inc 'ms011_ms013s_io33_v1p24_mis.mdl'
.ends p33_mis_ckt


*1.2v core dnw nmos
.subckt dnw12_4t_ckt d g s b w=1e-6 l=1e-6 sa='sar' sb='sbr' as='asr' ad='adr' ps='psr' pd='pdr' nrd='nrdr' nrs='nrsr' mr=1 mismod=0 
.para 
+dmcgr = 1.9e-7
+sar = 2.25e-006
+sbr = 2.25e-006
+adr = 'sar*w'
+asr = 'sbr*w'
+pdr = '2*(sar+w)'
+psr = '2*(sbr+w)'
+nrdr = 'dmcgr/w'
+nrsr = 'dmcgr/w'

+atox_n12=1.7e-11
+axl_n12=3e-9
+scale_mos = 0.9
+lef = 'l*scale_mos'
+wef = 'w*scale_mos'
+dtox_n12_mis    = 'atox_n12*1/sqrt(lef*wef*1e12*mr)*sigma_mis_a*mismod'
+dxl_n12_mis     = 'axl_n12*1/sqrt(wef*1e6*mr)*sigma_mis_b*mismod'
m1 d g s b n12_mis_ckt w=w l=l sa=sa sb=sb as=as ad=ad ps=ps pd=pd nrd=nrd nrs=nrs m=mr
.inc 'ms011_ms013s_io33_v1p24_mis.mdl'
.ends dnw12_4t_ckt

*1.2v core dnw hvt nmos
                                             
.subckt dnwhvt12_4t_ckt d g s b w=1e-6 l=1e-6 sa='sar' sb='sbr' as='asr' ad='adr' ps='psr' pd='pdr' nrd='nrdr' nrs='nrsr' mr=1
.para 
+dmcgr = 1.9e-7
+sar = 2.25e-006
+sbr = 2.25e-006
+adr = 'sar*w'
+asr = 'sbr*w'
+pdr = '2*(sar+w)'
+psr = '2*(sbr+w)'
+nrdr = 'dmcgr/w'
+nrsr = 'dmcgr/w'

m1 d g s b nhvt12 w=w l=l sa=sa sb=sb as=as ad=ad ps=ps pd=pd nrd=nrd nrs=nrs m=mr
.inc 'ms011_ms013s_io33_v1p24.mdl'
.ends dnwhvt12_4t_ckt

*1.2v core dnw lvt nmos
.subckt dnwlvt12_4t_ckt d g s b w=1e-6 l=1e-6 sa='sar' sb='sbr' as='asr' ad='adr' ps='psr' pd='pdr' nrd='nrdr' nrs='nrsr' mr=1
.para 
+dmcgr = 1.9e-7
+sar = 2.25e-006
+sbr = 2.25e-006
+adr = 'sar*w'
+asr = 'sbr*w'
+pdr = '2*(sar+w)'
+psr = '2*(sbr+w)'
+nrdr = 'dmcgr/w'
+nrsr = 'dmcgr/w'

m1 d g s b nlvt12 w=w l=l sa=sa sb=sb as=as ad=ad ps=ps pd=pd nrd=nrd nrs=nrs m=mr
.inc 'ms011_ms013s_io33_v1p24.mdl'
.ends dnwlvt12_4t_ckt

*3.3v IO dnw nmos
.subckt dnw33_4t_ckt d g s b w=1e-6 l=1e-6 sa='sar' sb='sbr' as='asr' ad='adr' ps='psr' pd='pdr' nrd='nrdr' nrs='nrsr' mr=1 mismod=0 
.para
+dmcgr = 2.1e-7
+sar = 3.32e-006
+sbr = 3.32e-006
+adr = 'sar*w'
+asr = 'sbr*w'
+pdr = '2*(sar+w)'
+psr = '2*(sbr+w)'
+nrdr = 'dmcgr/w'
+nrsr = 'dmcgr/w'

+atox_n33=4e-11
+axl_n33=3e-9
+avth_n33=9.5e-3
+au0_n33=6e-4
+scale_mos = 0.9
+lef = 'l*scale_mos'
+wef = 'w*scale_mos'
+dtox_n33_mis='atox_n33*1/sqrt(lef*wef*1e12*mr)*sigma_mis_a*mismod'
+dxl_n33_mis='axl_n33*1/sqrt(wef*1e6*mr)*sigma_mis_b*mismod'
+dvth_n33_mis='avth_n33*1/sqrt(lef*wef*1e12*mr)*sigma_mis_c*mismod'
+du0_n33_mis='au0_n33*1/sqrt(lef*wef*1e12*mr)*sigma_mis_d*mismod'
m1 d g s b n33_mis_ckt w=w l=l sa=sa sb=sb as=as ad=ad ps=ps pd=pd nrd=nrd nrs=nrs m=mr
.inc 'ms011_ms013s_io33_v1p24_mis.mdl'
.ends dnw33_4t_ckt


*1.2v core dnw nmos
.subckt dnw12_ckt 1 2 3 4 5 6 w=1e-6 l=1e-6 sa='sar' sb='sbr' as='asr' ad='adr' ps='psr' pd='pdr' nrd='nrdr' nrs='nrsr' mr=1 mismod=0 
.para 
+dmcgr = 1.9e-7
+sar = 2.25e-006
+sbr = 2.25e-006
+adr = 'sar*w'
+asr = 'sbr*w'
+pdr = '2*(sar+w)'
+psr = '2*(sbr+w)'
+nrdr = 'dmcgr/w'
+nrsr = 'dmcgr/w'

+atox_n12=1.7e-11
+axl_n12=3e-9
+scale_mos = 0.9
+lef = 'l*scale_mos'
+wef = 'w*scale_mos'
+dtox_n12_mis     = 'atox_n12*1/sqrt(lef*wef*1e12*mr)*sigma_mis_a*mismod'
+dxl_n12_mis     = 'axl_n12*1/sqrt(wef*1e6*mr)*sigma_mis_b*mismod'
m1 1 2 3 4 n12_mis_ckt w=w l=l sa=sa sb=sb as=as ad=ad ps=ps pd=pd nrd=nrd nrs=nrs m=mr
.inc 'ms011_ms013s_io33_v1p24_mis.mdl'
.ends dnw12_ckt

*1.2v core dnw hvt nmos
.subckt dnwhvt12_ckt 1 2 3 4 5 6 w=1e-6 l=1e-6 sa='sar' sb='sbr' as='asr' ad='adr' ps='psr' pd='pdr' nrd='nrdr' nrs='nrsr' mr=1
.para 
+dmcgr = 1.9e-7
+sar = 2.25e-006
+sbr = 2.25e-006
+adr = 'sar*w'
+asr = 'sbr*w'
+pdr = '2*(sar+w)'
+psr = '2*(sbr+w)'
+nrdr = 'dmcgr/w'
+nrsr = 'dmcgr/w'

m1 1 2 3 4 nhvt12 w=w l=l sa=sa sb=sb as=as ad=ad ps=ps pd=pd nrd=nrd nrs=nrs m=mr
.inc 'ms011_ms013s_io33_v1p24.mdl'
.ends dnwhvt12_ckt

*1.2v core dnw lvt nmos
.subckt dnwlvt12_ckt 1 2 3 4 5 6 w=1e-6 l=1e-6 sa='sar' sb='sbr' as='asr' ad='adr' ps='psr' pd='pdr' nrd='nrdr' nrs='nrsr' mr=1
.para 
+dmcgr = 1.9e-7
+sar = 2.25e-006
+sbr = 2.25e-006
+adr = 'sar*w'
+asr = 'sbr*w'
+pdr = '2*(sar+w)'
+psr = '2*(sbr+w)'
+nrdr = 'dmcgr/w'
+nrsr = 'dmcgr/w'

m1 1 2 3 4 nlvt12 w=w l=l sa=sa sb=sb as=as ad=ad ps=ps pd=pd nrd=nrd nrs=nrs m=mr
.inc 'ms011_ms013s_io33_v1p24.mdl'
.ends dnwlvt12_ckt

*3.3v IO dnw nmos
.subckt dnw33_ckt 1 2 3 4 5 6 w=1e-6 l=1e-6 sa='sar' sb='sbr' as='asr' ad='adr' ps='psr' pd='pdr' nrd='nrdr' nrs='nrsr' mr=1 mismod=0 
.para
+dmcgr = 2.1e-7
+sar = 3.32e-006
+sbr = 3.32e-006
+adr = 'sar*w'
+asr = 'sbr*w'
+pdr = '2*(sar+w)'
+psr = '2*(sbr+w)'
+nrdr = 'dmcgr/w'
+nrsr = 'dmcgr/w'

+atox_n33=4e-11
+axl_n33=3e-9
+avth_n33=9.5e-3
+au0_n33=6e-4
+scale_mos = 0.9
+lef = 'l*scale_mos'
+wef = 'w*scale_mos'
+dtox_n33_mis='atox_n33*1/sqrt(lef*wef*1e12*mr)*sigma_mis_a*mismod'
+dxl_n33_mis='axl_n33*1/sqrt(wef*1e6*mr)*sigma_mis_b*mismod'
+dvth_n33_mis='avth_n33*1/sqrt(lef*wef*1e12*mr)*sigma_mis_c*mismod'
+du0_n33_mis='au0_n33*1/sqrt(lef*wef*1e12*mr)*sigma_mis_d*mismod'
m1 1 2 3 4 n33_mis_ckt w=w l=l sa=sa sb=sb as=as ad=ad ps=ps pd=pd nrd=nrd nrs=nrs m=mr
.inc 'ms011_ms013s_io33_v1p24_mis.mdl'
.ends dnw33_ckt

********************************
*         bsim  model          *
********************************

.param
*1.2v core nmos 
+dtox_n12      = 0            dxl_n12       = 0            dxw_n12       = 0 
+dvth_n12      = 0            dcj_n12       = 0            dcjsw_n12     = 0
+dcjswg_n12    = 0            dcgdo_n12     = 0            dcgso_n12     = 0
+du0_n12       = 0            dnlx_n12      = 0            dlu0_n12      = 0            
+dlvsat_n12    = 0            dk3_n12       = 0            dpvth0_n12    = 0            
+dpu0_n12      = 0            dagidl_n12    = 0

*1.2v core pmos
+dtox_p12      = 0            dxl_p12       = 0            dxw_p12       = 0 
+dvth_p12      = 0	         dcj_p12       = 0            dcjsw_p12     = 0
+dcjswg_p12    = 0	         dcgdo_p12     = 0            dcgso_p12     = 0
+du0_p12       = 0            dnlx_p12      = 0            dlu0_p12      = 0
+dlvsat_p12    = 0            dwu0_p12      = 0            dpvth0_p12    = 0            
+dpu0_p12      = 0            dpvsat_p12    = 0            dagidl_p12    = 0

*3.3v io nmos 
+dtox_n33      = 0            dxl_n33       = 0            dxw_n33       = 0 
+dvth_n33      = 0            dwvth0_n33    = 0            dpvth0_n33    = 0 
+dlvth0_n33    = 0            du0_n33       = 0            dwu0_n33      = 0
+dcj_n33       = 0            dcjsw_n33     = 0            dagidl_n33    = 0
+dcjswg_n33    = 0            dcgdo_n33     = 0            dcgso_n33     = 0
+dlu0_n33      = 0            dlvsat_n33    = 0            dpu0_n33      = 0            

*3.3v io pmos
+dtox_p33      = 0            dxl_p33       = 0            dxw_p33       = 0 
+dvth_p33      = 0            dwvth0_p33    = 0            dpvth0_p33      = 0 
+dlvth0_p33    = 0            du0_p33       = 0            dwu0_p33       = 0
+dcj_p33       = 0            dcjsw_p33     = 0            dpu0_p33      = 0 
+dcjswg_p33    = 0            dcgdo_p33     = 0            dcgso_p33     = 0
+dlu0_p33      = 0            dlvsat_p33    = 0            dagidl_p33    = 0          
+dlagidl_p33   = 0            dpvsat_p33    =0         

*1.2v native nmos
+dtox_nt12      = 0           dxl_nt12       = 0            dxw_nt12       = 0 
+dvth_nt12      = 0	         dcj_nt12       = 0            dcjsw_nt12     = 0
+dcjswg_nt12    = 0	         dcgdo_nt12     = 0            dcgso_nt12     = 0
+du0_nt12       = 0           dlvth0_nt12    = 0            dlu0_nt12      = 0
+dk3_nt12       = 0

*3.3v native nmos
+dtox_nt33      = 0           dxl_nt33       = 0           dxw_nt33      = 0 
+dvth_nt33      = 0	          dcj_nt33       = 0           dcjsw_nt33    = 0
+dcjswg_nt33    = 0	          dcgdo_nt33     = 0           dcgso_nt33    = 0
+dlvth0_nt33    = 0           dwvth0_nt33    = 0           dpvth0_nt33   = 0
+du0_nt33       = 0           dlu0_nt33      = 0           dwu0_nt33     = 0
+dpu0_nt33      = 0           dvsat_nt33     = 0           dlvsat_nt33   = 0        
+dwvsat_nt33    = 0           dpvsat_nt33   = 0 

*1.2v hvt core nmos 
+dtox_nhvt12    = 0           dxl_nhvt12     = 0           dxw_nhvt12    = 0 
+dvth_nhvt12    = 0           dcj_nhvt12     = 0           dcjsw_nhvt12  = 0
+dcjswg_nhvt12  = 0           dcgdo_nhvt12   = 0           dcgso_nhvt12  = 0
+du0_nhvt12     = 0           dnlx_nhvt12    = 0           dlu0_nhvt12   = 0            
+dlvsat_nhvt12  = 0           dk3_nhvt12     = 0           dpvth0_nhvt12 = 0            
+dpu0_nhvt12    = 0           dagidl_nhvt12  = 0

*1.2v hvt core pmos
+dtox_phvt12    = 0           dxl_phvt12     = 0           dxw_phvt12    = 0 
+dvth_phvt12    = 0	         dcj_phvt12     = 0           dcjsw_phvt12  = 0
+dcjswg_phvt12  = 0	         dcgdo_phvt12   = 0           dcgso_phvt12  = 0
+du0_phvt12     = 0           dnlx_phvt12    = 0           dlu0_phvt12   = 0
+dlvsat_phvt12  = 0           dpvth0_phvt12  = 0           dagidl_phvt12  = 0 
+dpu0_phvt12    = 0 

*1.2v lvt core nmos 
+dtox_nlvt12      = 0            dxl_nlvt12       = 0            dxw_nlvt12       = 0 
+dvth_nlvt12      = 0            dcj_nlvt12       = 0            dcjsw_nlvt12     = 0
+dcjswg_nlvt12    = 0            dcgdo_nlvt12     = 0            dcgso_nlvt12     = 0
+du0_nlvt12       = 0            dnlx_nlvt12      = 0            dlu0_nlvt12      = 0            
+dlvsat_nlvt12    = 0            dk3_nlvt12       = 0            dpvth0_nlvt12    = 0            
+dpu0_nlvt12      = 0            dpvsat_nlvt12    = 0

*1.2v lvt core pmos
+dtox_plvt12      = 0            dxl_plvt12       = 0            dxw_plvt12       = 0 
+dvth_plvt12      = 0	     dcj_plvt12       = 0            dcjsw_plvt12     = 0
+dcjswg_plvt12    = 0	     dcgdo_plvt12     = 0            dcgso_plvt12     = 0
+du0_plvt12       = 0            dnlx_plvt12      = 0            dpvth0_plvt12    = 0            
+dvsat_plvt12     = 0            dpub_plvt12      = 0            dpvsat_plvt12    = 0
+dagidl_plvt12    = 0

.inc 'ms011_ms013s_io33_v1p24.mdl' 
.endl  tt

.lib ff
.option gmindc=1e-14 scale =0.9
.param
+sigma_mis_a=agauss(0,1,1)
+sigma_mis_b=agauss(0,1,1)
+sigma_mis_c=agauss(0,1,1)
+sigma_mis_d=agauss(0,1,1)

*1.2v core nmos
.subckt n12_mis_ckt d g s b w=1e-6 l=1e-6 sa='sar' sb='sbr' as='asr' ad='adr' ps='psr' pd='pdr' nrd='nrdr' nrs='nrsr' mr=1 mismod=0 
.para 
+dmcgr = 1.9e-7
+sar = 2.25e-006
+sbr = 2.25e-006
+adr = 'sar*w'
+asr = 'sbr*w'
+pdr = '2*(sar+w)'
+psr = '2*(sbr+w)'
+nrdr = 'dmcgr/w'
+nrsr = 'dmcgr/w'

+atox_n12=1.7e-11
+axl_n12=3e-9
+scale_mos = 0.9
+lef = 'l*scale_mos'
+wef = 'w*scale_mos'
+dtox_n12_mis     = 'atox_n12*1/sqrt(lef*wef*1e12*mr)*sigma_mis_a*mismod'
+dxl_n12_mis     = 'axl_n12*1/sqrt(wef*1e6*mr)*sigma_mis_b*mismod'
m1 d g s b n12_mis_ckt w=w l=l sa=sa sb=sb as=as ad=ad ps=ps pd=pd nrd=nrd nrs=nrs m=mr
.inc 'ms011_ms013s_io33_v1p24_mis.mdl' 
.ends n12_mis_ckt

*1.2v core pmos
.subckt p12_mis_ckt d g s b w=1e-6 l=1e-6 sa='sar' sb='sbr' as='asr' ad='adr' ps='psr' pd='pdr' nrd='nrdr' nrs='nrsr' mr=1 mismod=0 
.para
+dmcgr = 1.9e-7
+sar = 2.25e-006
+sbr = 2.25e-006
+adr = 'sar*w'
+asr = 'sbr*w'
+pdr = '2*(sar+w)'
+psr = '2*(sbr+w)'
+nrdr = 'dmcgr/w'
+nrsr = 'dmcgr/w'

+atox_p12=2.85e-11
+axl_p12=8e-10
+scale_mos = 0.9
+lef = 'l*scale_mos'
+wef = 'w*scale_mos'
+dtox_p12_mis='atox_p12*1/sqrt(lef*wef*1e12*mr)*sigma_mis_a*mismod'
+dxl_p12_mis='axl_p12*1/sqrt(wef*1e6*mr)*sigma_mis_b*mismod'
m1 d g s b p12_mis_ckt w=w l=l sa=sa sb=sb as=as ad=ad ps=ps pd=pd nrd=nrd nrs=nrs m=mr
.inc 'ms011_ms013s_io33_v1p24_mis.mdl'
.ends p12_mis_ckt

*3.3v core nmos
.subckt n33_mis_ckt d g s b w=1e-6 l=1e-6 sa='sar' sb='sbr' as='asr' ad='adr' ps='psr' pd='pdr' nrd='nrdr' nrs='nrsr' mr=1 mismod=0 
.para
+dmcgr = 2.1e-7
+sar = 3.32e-006
+sbr = 3.32e-006
+adr = 'sar*w'
+asr = 'sbr*w'
+pdr = '2*(sar+w)'
+psr = '2*(sbr+w)'
+nrdr = 'dmcgr/w'
+nrsr = 'dmcgr/w'

+atox_n33=4e-11
+axl_n33=3e-9
+avth_n33=9.5e-3
+au0_n33=6e-4
+scale_mos = 0.9
+lef = 'l*scale_mos'
+wef = 'w*scale_mos'
+dtox_n33_mis='atox_n33*1/sqrt(lef*wef*1e12*mr)*sigma_mis_a*mismod'
+dxl_n33_mis='axl_n33*1/sqrt(wef*1e6*mr)*sigma_mis_b*mismod'
+dvth_n33_mis='avth_n33*1/sqrt(lef*wef*1e12*mr)*sigma_mis_c*mismod'
+du0_n33_mis='au0_n33*1/sqrt(lef*wef*1e12*mr)*sigma_mis_d*mismod'
m1 d g s b n33_mis_ckt w=w l=l sa=sa sb=sb as=as ad=ad ps=ps pd=pd nrd=nrd nrs=nrs m=mr
.inc 'ms011_ms013s_io33_v1p24_mis.mdl'
.ends n33_mis_ckt

*3.3v core pmos
.subckt p33_mis_ckt d g s b w=1e-6 l=1e-6 sa='sar' sb='sbr' as='asr' ad='adr' ps='psr' pd='pdr' nrd='nrdr' nrs='nrsr' mr=1 mismod=0 
.para
+dmcgr = 2.1e-7
+sar = 3.32e-006
+sbr = 3.32e-006
+adr = 'sar*w'
+asr = 'sbr*w'
+pdr = '2*(sar+w)'
+psr = '2*(sbr+w)'
+nrdr = 'dmcgr/w'
+nrsr = 'dmcgr/w'

+atox_p33=3e-11
+axl_p33=3e-10
+avth_p33=3.5e-3
+au0_p33=1e-4
+scale_mos = 0.9
+lef = 'l*scale_mos'
+wef = 'w*scale_mos'
+dtox_p33_mis='atox_p33*1/sqrt(lef*wef*1e12*mr)*sigma_mis_a*mismod'
+dxl_p33_mis='axl_p33*1/sqrt(wef*1e6*mr)*sigma_mis_b*mismod'
+dvth_p33_mis='avth_p33*1/sqrt(lef*wef*1e12*mr)*sigma_mis_c*mismod'
+du0_p33_mis='au0_p33*1/sqrt(lef*wef*1e12*mr)*sigma_mis_d*mismod'
m1 d g s b p33_mis_ckt w=w l=l sa=sa sb=sb as=as ad=ad ps=ps pd=pd nrd=nrd nrs=nrs m=mr
.inc 'ms011_ms013s_io33_v1p24_mis.mdl'
.ends p33_mis_ckt


*1.2v core dnw nmos
.subckt dnw12_4t_ckt d g s b w=1e-6 l=1e-6 sa='sar' sb='sbr' as='asr' ad='adr' ps='psr' pd='pdr' nrd='nrdr' nrs='nrsr' mr=1 mismod=0 
.para 
+dmcgr = 1.9e-7
+sar = 2.25e-006
+sbr = 2.25e-006
+adr = 'sar*w'
+asr = 'sbr*w'
+pdr = '2*(sar+w)'
+psr = '2*(sbr+w)'
+nrdr = 'dmcgr/w'
+nrsr = 'dmcgr/w'

+atox_n12=1.7e-11
+axl_n12=3e-9
+scale_mos = 0.9
+lef = 'l*scale_mos'
+wef = 'w*scale_mos'
+dtox_n12_mis    = 'atox_n12*1/sqrt(lef*wef*1e12*mr)*sigma_mis_a*mismod'
+dxl_n12_mis     = 'axl_n12*1/sqrt(wef*1e6*mr)*sigma_mis_b*mismod'
m1 d g s b n12_mis_ckt w=w l=l sa=sa sb=sb as=as ad=ad ps=ps pd=pd nrd=nrd nrs=nrs m=mr
.inc 'ms011_ms013s_io33_v1p24_mis.mdl'
.ends dnw12_4t_ckt

*1.2v core dnw hvt nmos
.subckt dnwhvt12_4t_ckt d g s b w=1e-6 l=1e-6 sa='sar' sb='sbr' as='asr' ad='adr' ps='psr' pd='pdr' nrd='nrdr' nrs='nrsr' mr=1
.para 
+dmcgr = 1.9e-7
+sar = 2.25e-006
+sbr = 2.25e-006
+adr = 'sar*w'
+asr = 'sbr*w'
+pdr = '2*(sar+w)'
+psr = '2*(sbr+w)'
+nrdr = 'dmcgr/w'
+nrsr = 'dmcgr/w'

m1 d g s b nhvt12 w=w l=l sa=sa sb=sb as=as ad=ad ps=ps pd=pd nrd=nrd nrs=nrs m=mr
.inc 'ms011_ms013s_io33_v1p24.mdl' 
.ends dnwhvt12_4t_ckt

*1.2v core dnw lvt nmos
.subckt dnwlvt12_4t_ckt d g s b w=1e-6 l=1e-6 sa='sar' sb='sbr' as='asr' ad='adr' ps='psr' pd='pdr' nrd='nrdr' nrs='nrsr' mr=1
.para 
+dmcgr = 1.9e-7
+sar = 2.25e-006
+sbr = 2.25e-006
+adr = 'sar*w'
+asr = 'sbr*w'
+pdr = '2*(sar+w)'
+psr = '2*(sbr+w)'
+nrdr = 'dmcgr/w'
+nrsr = 'dmcgr/w'

m1 d g s b nlvt12 w=w l=l sa=sa sb=sb as=as ad=ad ps=ps pd=pd nrd=nrd nrs=nrs m=mr
.inc 'ms011_ms013s_io33_v1p24.mdl'
.ends dnwlvt12_4t_ckt

*3.3v IO dnw nmos
.subckt dnw33_4t_ckt d g s b w=1e-6 l=1e-6 sa='sar' sb='sbr' as='asr' ad='adr' ps='psr' pd='pdr' nrd='nrdr' nrs='nrsr' mr=1 mismod=0 
.para
+dmcgr = 2.1e-7
+sar = 3.32e-006
+sbr = 3.32e-006
+adr = 'sar*w'
+asr = 'sbr*w'
+pdr = '2*(sar+w)'
+psr = '2*(sbr+w)'
+nrdr = 'dmcgr/w'
+nrsr = 'dmcgr/w'

+atox_n33=4e-11
+axl_n33=3e-9
+avth_n33=9.5e-3
+au0_n33=6e-4
+scale_mos = 0.9
+lef = 'l*scale_mos'
+wef = 'w*scale_mos'
+dtox_n33_mis='atox_n33*1/sqrt(lef*wef*1e12*mr)*sigma_mis_a*mismod'
+dxl_n33_mis='axl_n33*1/sqrt(wef*1e6*mr)*sigma_mis_b*mismod'
+dvth_n33_mis='avth_n33*1/sqrt(lef*wef*1e12*mr)*sigma_mis_c*mismod'
+du0_n33_mis='au0_n33*1/sqrt(lef*wef*1e12*mr)*sigma_mis_d*mismod'
m1 d g s b n33_mis_ckt w=w l=l sa=sa sb=sb as=as ad=ad ps=ps pd=pd nrd=nrd nrs=nrs m=mr
.inc 'ms011_ms013s_io33_v1p24_mis.mdl'
.ends dnw33_4t_ckt


*1.2v core dnw nmos
.subckt dnw12_ckt 1 2 3 4 5 6 w=1e-6 l=1e-6 sa='sar' sb='sbr' as='asr' ad='adr' ps='psr' pd='pdr' nrd='nrdr' nrs='nrsr' mr=1 mismod=0 
.para 
+dmcgr = 1.9e-7
+sar = 2.25e-006
+sbr = 2.25e-006
+adr = 'sar*w'
+asr = 'sbr*w'
+pdr = '2*(sar+w)'
+psr = '2*(sbr+w)'
+nrdr = 'dmcgr/w'
+nrsr = 'dmcgr/w'

+atox_n12=1.7e-11
+axl_n12=3e-9
+scale_mos = 0.9
+lef = 'l*scale_mos'
+wef = 'w*scale_mos'
+dtox_n12_mis     = 'atox_n12*1/sqrt(lef*wef*1e12*mr)*sigma_mis_a*mismod'
+dxl_n12_mis     = 'axl_n12*1/sqrt(wef*1e6*mr)*sigma_mis_b*mismod'
m1 1 2 3 4 n12_mis_ckt w=w l=l sa=sa sb=sb as=as ad=ad ps=ps pd=pd nrd=nrd nrs=nrs m=mr
.inc 'ms011_ms013s_io33_v1p24_mis.mdl'
.ends dnw12_ckt

*1.2v core dnw hvt nmos
.subckt dnwhvt12_ckt 1 2 3 4 5 6 w=1e-6 l=1e-6 sa='sar' sb='sbr' as='asr' ad='adr' ps='psr' pd='pdr' nrd='nrdr' nrs='nrsr' mr=1
.para 
+dmcgr = 1.9e-7
+sar = 2.25e-006
+sbr = 2.25e-006
+adr = 'sar*w'
+asr = 'sbr*w'
+pdr = '2*(sar+w)'
+psr = '2*(sbr+w)'
+nrdr = 'dmcgr/w'
+nrsr = 'dmcgr/w'

m1 1 2 3 4 nhvt12 w=w l=l sa=sa sb=sb as=as ad=ad ps=ps pd=pd nrd=nrd nrs=nrs m=mr
.inc 'ms011_ms013s_io33_v1p24.mdl'
.ends dnwhvt12_ckt

*1.2v core dnw lvt nmos
.subckt dnwlvt12_ckt 1 2 3 4 5 6 w=1e-6 l=1e-6 sa='sar' sb='sbr' as='asr' ad='adr' ps='psr' pd='pdr' nrd='nrdr' nrs='nrsr' mr=1
.para 
+dmcgr = 1.9e-7
+sar = 2.25e-006
+sbr = 2.25e-006
+adr = 'sar*w'
+asr = 'sbr*w'
+pdr = '2*(sar+w)'
+psr = '2*(sbr+w)'
+nrdr = 'dmcgr/w'
+nrsr = 'dmcgr/w'

m1 1 2 3 4 nlvt12 w=w l=l sa=sa sb=sb as=as ad=ad ps=ps pd=pd nrd=nrd nrs=nrs m=mr
.inc 'ms011_ms013s_io33_v1p24.mdl'
.ends dnwlvt12_ckt

*3.3v IO dnw nmos
.subckt dnw33_ckt 1 2 3 4 5 6 w=1e-6 l=1e-6 sa='sar' sb='sbr' as='asr' ad='adr' ps='psr' pd='pdr' nrd='nrdr' nrs='nrsr' mr=1 mismod=0 
.para
+dmcgr = 2.1e-7
+sar = 3.32e-006
+sbr = 3.32e-006
+adr = 'sar*w'
+asr = 'sbr*w'
+pdr = '2*(sar+w)'
+psr = '2*(sbr+w)'
+nrdr = 'dmcgr/w'
+nrsr = 'dmcgr/w'

+atox_n33=4e-11
+axl_n33=3e-9
+avth_n33=9.5e-3
+au0_n33=6e-4
+scale_mos = 0.9
+lef = 'l*scale_mos'
+wef = 'w*scale_mos'
+dtox_n33_mis='atox_n33*1/sqrt(lef*wef*1e12*mr)*sigma_mis_a*mismod'
+dxl_n33_mis='axl_n33*1/sqrt(wef*1e6*mr)*sigma_mis_b*mismod'
+dvth_n33_mis='avth_n33*1/sqrt(lef*wef*1e12*mr)*sigma_mis_c*mismod'
+du0_n33_mis='au0_n33*1/sqrt(lef*wef*1e12*mr)*sigma_mis_d*mismod'
m1 1 2 3 4 n33_mis_ckt w=w l=l sa=sa sb=sb as=as ad=ad ps=ps pd=pd nrd=nrd nrs=nrs m=mr
.inc 'ms011_ms013s_io33_v1p24_mis.mdl'
.ends dnw33_ckt
********************************
*          bsim  model         *
********************************
.param
*1.2v core nmos 
+dtox_n12      = -4e-11       dxl_n12       = -7.00e-9     dxw_n12       = 1.5e-8 
+dvth_n12      = -0.0045      dcj_n12       = -6.575e-5    dcjsw_n12     = -5.2e-12
+dcjswg_n12    = -2.435e-11   dcgdo_n12     = 1.8e-11      dcgso_n12     = 1.8e-11
+du0_n12       = 2.0e-4       dnlx_n12      = -7.0e-9      dlu0_n12      = 9.0e-11    
+dlvsat_n12    = 0            dk3_n12       = -0.15        dpvth0_n12    = -1.7e-15   
+dpu0_n12      = -6.0e-17     dagidl_n12    = 3.1e-011

*1.2v core pmos
+dtox_p12      = -4e-11       dxl_p12       = -7.00e-9     dxw_p12       = 1.5e-8 
+dvth_p12      = 0.020        dcj_p12       = -6.1e-5      dcjsw_p12     = -3.765e-12
+dcjswg_p12    = -2.335e-11   dcgdo_p12     = 2.17e-11     dcgso_p12     = 2.17e-11
+du0_p12       = 1.2e-4       dnlx_p12      = -2.1e-8      dlu0_p12      = 0
+dlvsat_p12    = 0            dwu0_p12      = 0            dpvth0_p12    = 2.6e-15      
+dpu0_p12      = -7e-17       dpvsat_p12    = -3e-9        dagidl_p12    = 3.1e-012
                
*3.3v io nmos 
+dtox_n33      = -3e-010       dxl_n33       = -1.8e-8      dxw_n33       = 2.0e-8 
+dvth_n33      = -0.0358       dwvth0_n33    = -7.4e-009    dpvth0_n33    = 6.4e-016 
+dlvth0_n33    = -3.3633e-009  du0_n33       = 0.0005       dwu0_n33      = 0 
+dcj_n33       = -4.500e-5     dcjsw_n33     = -6.35e-12    dagidl_n33    = 4.5e-13
+dcjswg_n33    = -2.03e-11     dcgdo_n33     = 1.34e-11     dcgso_n33     = 1.34e-11
+dlu0_n33      = 7.4426e-010   dlvsat_n33    = 0.0006       dpu0_n33      = 0     

*3.3v io pmos
+dtox_p33      = -3e-010       dxl_p33       = -1.8e-8      dxw_p33       = 2.0e-8 
+dvth_p33      = 0.0277        dwvth0_p33    = 1.17e-008    dpvth0_p33    = -1.52e-015 
+dlvth0_p33    = 1.9400e-009   du0_p33       = 0.00015      dwu0_p33       = -4.6e-011 
+dcj_p33       = -6.1e-5       dcjsw_p33     = -2.28e-12    dlagidl_p33    = 1e-017
+dcjswg_p33    = -2.35e-11     dcgdo_p33     = 1.52e-11     dcgso_p33     = 1.55e-11
+dlu0_p33      = -3.2000e-011  dlvsat_p33    = -0.0017      dpu0_p33      = 1.5e-017     
+dagidl_p33    = 2e-012        dpvsat_p33    =1.2e-9 

*1.2v native nmos
+dtox_nt12      = -4e-11      dxl_nt12       = -7e-9        dxw_nt12       = 1.5e-8 
+dvth_nt12      = -0.026      dcj_nt12       = -7.9e-6      dcjsw_nt12     = -5.4e-12
+dcjswg_nt12    = -1.965e-11  dcgdo_nt12     = 1.66e-11     dcgso_nt12     = 1.66e-11
+du0_nt12       = 3.0e-3      dlvth0_nt12    = -3.2e-9      dlu0_nt12      = 3.5e-10     
+dk3_nt12       = -4.5

*3.3v native nmos
+dtox_nt33      = -5e-10       dxl_nt33       = -1.8e-8      dxw_nt33       = 2.0e-8 
+dvth_nt33      = -0.06945	    dcj_nt33       = -6.85e-6     dcjsw_nt33     = -2.96e-12
+dcjswg_nt33    = -6.10e-12    dcgdo_nt33     = 1.61e-11     dcgso_nt33     = 1.61e-11
+dlvth0_nt33    = -2.018e-008  dwvth0_nt33    = -6.61e-009   dpvth0_nt33    = 2.515e-015 
+du0_nt33       = 0.00222      dlu0_nt33      = 1.214e-009   dwu0_nt33      = -6.383e-010 
+dpu0_nt33      = 2.56e-016    dvsat_nt33     = 21610        dlvsat_nt33    = -0.02244         
+dwvsat_nt33    =-0.016359     dpvsat_nt33    = 1.45e-008

*1.2v hvt core nmos 
+dtox_nhvt12    = -4e-11      dxl_nhvt12     = -7.00e-9     dxw_nhvt12       = 1.5e-8 
+dvth_nhvt12    = -0.008      dcj_nhvt12     = -7.97e-5     dcjsw_nhvt12     = -5.35e-12
+dcjswg_nhvt12  = -2.52e-11   dcgdo_nhvt12   = 1.88e-11     dcgso_nhvt12     = 1.88e-11 
+du0_nhvt12     = 2.0e-4      dnlx_nhvt12    = -7.0e-9      dlu0_nhvt12      = 9.0e-11    
+dlvsat_nhvt12  = 0           dk3_nhvt12     = -0.15        dpvth0_nhvt12    = -2.6e-15   
+dpu0_nhvt12    = -1.8e-16    dagidl_nhvt12  = 6e-012

*1.2v hvt core pmos
+dtox_phvt12    = -4e-11      dxl_phvt12     = -7.00e-9     dxw_phvt12       = 1.5e-8 
+dvth_phvt12    = 0.02        dcj_phvt12     = -9.65e-5     dcjsw_phvt12     = -6.03e-12
+dcjswg_phvt12  = -2.76e-11   dcgdo_phvt12   = 2.14e-11     dcgso_phvt12     = 2.14e-11
+du0_phvt12     = 1.2e-4      dnlx_phvt12    = -3.6e-8      dlu0_phvt12      = 6.0e-11
+dlvsat_phvt12  = -4.8e-3     dpvth0_phvt12  = 1.8e-15      dagidl_phvt12    = 6e-12
+dpu0_phvt12    = -2.3e-17        

*1.2v lvt core nmos 
+dtox_nlvt12      = -4e-11       dxl_nlvt12       = -7.00e-9     dxw_nlvt12       = 1.5e-8 
+dvth_nlvt12      = -0.0046545   dcj_nlvt12       = -5.10e-5     dcjsw_nlvt12     = -5.05e-12
+dcjswg_nlvt12    = -2.10e-11    dcgdo_nlvt12     = 1.82e-11     dcgso_nlvt12     = 1.82e-11
+du0_nlvt12       = 9.0e-4       dnlx_nlvt12      = -3.36e-8     dlu0_nlvt12      = 1.965e-010     
+dlvsat_nlvt12    = 3e-4         dk3_nlvt12       = -0.5         dpvth0_nlvt12    = -1.174e-017     
+dpu0_nlvt12      = -5.328e-017  dpvsat_nlvt12    = -5.0e-12

*1.2v lvt core pmos
+dtox_plvt12      = -4e-11       dxl_plvt12       = -7.00e-9     dxw_plvt12       = 1.5e-8 
+dvth_plvt12      = 0.013358     dcj_plvt12       = -5.82e-5     dcjsw_plvt12     = -4.05e-12
+dcjswg_plvt12    = -1.98e-11    dcgdo_plvt12     = 2.30e-11     dcgso_plvt12     = 2.30e-11
+du0_plvt12       = 0.00054682   dnlx_plvt12      = -5.3069e-008 dpvth0_plvt12    = 6.7685e-016             
+dvsat_plvt12     = 31339        dpub_plvt12      = 1.2953e-032  dpvsat_plvt12    = -5.6624e-007       
+dagidl_plvt12    = 6e-012

.inc 'ms011_ms013s_io33_v1p24.mdl' 
.endl  ff

.lib ss
.option gmindc=1e-14 scale =0.9
.param
+sigma_mis_a=agauss(0,1,1)
+sigma_mis_b=agauss(0,1,1)
+sigma_mis_c=agauss(0,1,1)
+sigma_mis_d=agauss(0,1,1)

*1.2v core nmos
.subckt n12_mis_ckt d g s b w=1e-6 l=1e-6 sa='sar' sb='sbr' as='asr' ad='adr' ps='psr' pd='pdr' nrd='nrdr' nrs='nrsr' mr=1 mismod=0 
.para 
+dmcgr = 1.9e-7
+sar = 2.25e-006
+sbr = 2.25e-006
+adr = 'sar*w'
+asr = 'sbr*w'
+pdr = '2*(sar+w)'
+psr = '2*(sbr+w)'
+nrdr = 'dmcgr/w'
+nrsr = 'dmcgr/w'

+atox_n12=1.7e-11
+axl_n12=3e-9
+scale_mos = 0.9
+lef = 'l*scale_mos'
+wef = 'w*scale_mos'
+dtox_n12_mis     = 'atox_n12*1/sqrt(lef*wef*1e12*mr)*sigma_mis_a*mismod'
+dxl_n12_mis     = 'axl_n12*1/sqrt(wef*1e6*mr)*sigma_mis_b*mismod'
m1 d g s b n12_mis_ckt w=w l=l sa=sa sb=sb as=as ad=ad ps=ps pd=pd nrd=nrd nrs=nrs m=mr
.inc 'ms011_ms013s_io33_v1p24_mis.mdl' 
.ends n12_mis_ckt

*1.2v core pmos
.subckt p12_mis_ckt d g s b w=1e-6 l=1e-6 sa='sar' sb='sbr' as='asr' ad='adr' ps='psr' pd='pdr' nrd='nrdr' nrs='nrsr' mr=1 mismod=0 
.para
+dmcgr = 1.9e-7
+sar = 2.25e-006
+sbr = 2.25e-006
+adr = 'sar*w'
+asr = 'sbr*w'
+pdr = '2*(sar+w)'
+psr = '2*(sbr+w)'
+nrdr = 'dmcgr/w'
+nrsr = 'dmcgr/w'

+atox_p12=2.85e-11
+axl_p12=8e-10
+scale_mos = 0.9
+lef = 'l*scale_mos'
+wef = 'w*scale_mos'
+dtox_p12_mis='atox_p12*1/sqrt(lef*wef*1e12*mr)*sigma_mis_a*mismod'
+dxl_p12_mis='axl_p12*1/sqrt(wef*1e6*mr)*sigma_mis_b*mismod'
m1 d g s b p12_mis_ckt w=w l=l sa=sa sb=sb as=as ad=ad ps=ps pd=pd nrd=nrd nrs=nrs m=mr
.inc 'ms011_ms013s_io33_v1p24_mis.mdl'
.ends p12_mis_ckt

*3.3v core nmos
.subckt n33_mis_ckt d g s b w=1e-6 l=1e-6 sa='sar' sb='sbr' as='asr' ad='adr' ps='psr' pd='pdr' nrd='nrdr' nrs='nrsr' mr=1 mismod=0 
.para
+dmcgr = 2.1e-7
+sar = 3.32e-006
+sbr = 3.32e-006
+adr = 'sar*w'
+asr = 'sbr*w'
+pdr = '2*(sar+w)'
+psr = '2*(sbr+w)'
+nrdr = 'dmcgr/w'
+nrsr = 'dmcgr/w'

+atox_n33=4e-11
+axl_n33=3e-9
+avth_n33=9.5e-3
+au0_n33=6e-4
+scale_mos = 0.9
+lef = 'l*scale_mos'
+wef = 'w*scale_mos'
+dtox_n33_mis='atox_n33*1/sqrt(lef*wef*1e12*mr)*sigma_mis_a*mismod'
+dxl_n33_mis='axl_n33*1/sqrt(wef*1e6*mr)*sigma_mis_b*mismod'
+dvth_n33_mis='avth_n33*1/sqrt(lef*wef*1e12*mr)*sigma_mis_c*mismod'
+du0_n33_mis='au0_n33*1/sqrt(lef*wef*1e12*mr)*sigma_mis_d*mismod'
m1 d g s b n33_mis_ckt w=w l=l sa=sa sb=sb as=as ad=ad ps=ps pd=pd nrd=nrd nrs=nrs m=mr
.inc 'ms011_ms013s_io33_v1p24_mis.mdl'
.ends n33_mis_ckt

*3.3v core pmos
.subckt p33_mis_ckt d g s b w=1e-6 l=1e-6 sa='sar' sb='sbr' as='asr' ad='adr' ps='psr' pd='pdr' nrd='nrdr' nrs='nrsr' mr=1 mismod=0 
.para
+dmcgr = 2.1e-7
+sar = 3.32e-006
+sbr = 3.32e-006
+adr = 'sar*w'
+asr = 'sbr*w'
+pdr = '2*(sar+w)'
+psr = '2*(sbr+w)'
+nrdr = 'dmcgr/w'
+nrsr = 'dmcgr/w'

+atox_p33=3e-11
+axl_p33=3e-10
+avth_p33=3.5e-3
+au0_p33=1e-4
+scale_mos = 0.9
+lef = 'l*scale_mos'
+wef = 'w*scale_mos'
+dtox_p33_mis='atox_p33*1/sqrt(lef*wef*1e12*mr)*sigma_mis_a*mismod'