* 
* No part of this file can be released without the consent of SMIC.
*
*************************************************************************************************
*    SMIC 0.11um Mixed Signal 1P8M(1P7M, 1P6M, 1P5M) 1.2V/3.3V SPICE model (for HSPICE only)    *
*************************************************************************************************
*
* Release version    : 1.24
*
* Release date       : 1/16/2015
*
* Simulation tool    : Synopsys Star-HSPICE version C-2009.09
*
* Model name         :
*   Vertical PNP BJT :
*
*        *--------------------------------------*-----------* 
*        |  P+/NWELL/PSUB BJT type  |   1.2V    |   3.3V    |
*        |==================================================|
*        | Emitter Area: 10*10 um^2 |pnp12a100  |pnp33a100  |
*        |--------------------------------------------------|  
*        | Emitter Area: 5*5 um^2   |pnp12a25   |pnp33a25   |
*        |--------------------------------------------------| 
*        | Emitter Area: 2*2 um^2   |pnp12a4    |pnp33a4    |
*        *--------------------------------------*-----------*
*
*   Vertical NPN BJT :
*        *-------------------------------------------------------* 
*        |  N+/PWELL/DeepNWELL BJT type  |   1.2V    |   3.3V    |
*        |=======================================================|
*        | Emitter Area: 20*20 um^2      | npn12a400 |   na      |
*        |-------------------------------------------------------|  
*        | Emitter Area: 15*15 um^2      | npn12a225 |   na      |
*        *-------------------------------------------------------* 
*        | Emitter Area: 10*10 um^2      | npn12a100 | npn33a100 |
*        |-------------------------------------------------------|  
*        | Emitter Area: 5*5 um^2        | npn12a25  | npn33a25  |
*        |-------------------------------------------------------| 
*        | Emitter Area: 2*2 um^2        | npn12a4   | npn33a4   |
*        *-------------------------------------------*-----------*
*
* The valid temperature range is from -40c to 125c
*
***********************************************************************************
*           1.2V  P+/NWELL/PSUB BIPOLAR MODEL (Emitter Area=10x10um^2)    *
***********************************************************************************
*                  
.model pnp12a100 pnp           
+LEVEL    = 1                   
+VAF      = 400.00              IKF      = 2.00E-03            
+ISE      = 5.50E-17            NE       = 1.5                 BR       = 8.00E-03            
+NR       = 1.01                VAR      = 25.0                IKR      = 2.09E-03            
+ISC      = 5.00E-17            NC       = 1.5                 RB       = 48.0                
+IRB      = 2.50E-03            RBM      = 2.0                 RE       = 2.5                 
+RC       = 11.11               XTI      = 3.0                 EG       = 1.16                
+TREF     = 25.0                NKF      = 0.5                 TLEV     = 0
+TLEVC    = 1                   XTB      = 0.00                TBF1     = 4.7E-03
+TBF2     = -1.0E-06            TBR1     = -8.5E-04            TBR2     = 8.50E-06
+TIKF1    = -1.0E-02            TIKF2    = 6.20E-05            TNF2     = 1.6549E-07
+TNR2     = 2.00E-07
+CTC      = 2.87E-3             CTE      = 8.72E-4              
+VJE      = 0.785               MJE      = 0.431               SUBS     = 1
+VJC      = 0.553               MJC      = 0.375                                       
+TVJC     = 0.0021353             TVJE     = 0.0012231
+IS       = '1.55E-17+DIS_PNP12A100'  
+BF       = '2.05+DBF_PNP12A100'                
+NF       = '1.01+DNF_PNP12A100'
+CJC      = '6.82E-14+DCJC_PNP12A100' 
+CJE      = '1.25E-13+DCJE_PNP12A100' 
*
***********************************************************************************
*            1.2V  P+/NWELL/PSUB BIPOLAR MODEL (Emitter Area=5x5um^2)     *
***********************************************************************************
*                  
.model pnp12a25 pnp
+LEVEL    = 1                   
+VAF      = 553.93              IKF      = 1.10E-03            
+ISE      = 1.50E-17            NE       = 1.5                 BR       = 3.18E-03            
+NR       = 1.01                VAR      = 25.0                IKR      = 2.09E-03            
+ISC      = 5.00E-17            NC       = 1.5                 RB       = 62.0                
+IRB      = 2.50E-03            RBM      = 2.0                 RE       = 2.5                 
+RC       = 11.11               XTI      = 3.0                 EG       = 1.16                
+TREF     = 25.0                NKF      = 0.5                 TLEV     = 0
+TLEVC    = 1                   XTB      = 0.00                TBF1     = 0.0049              
+TBF2     = 3.5E-07             TBR1     = -0.00120            TBR2     = 0.0000140
+TIKF1    = -0.0085             TIKF2    = 4.80E-05              
+TNF2     = 5.0015E-07          TNR2     = 4.00E-07
+CTC      = 2.87E-3             CTE      = 8.72E-4                                      
+TVJC     = 0.0021353             TVJE     = 0.0012231             SUBS     = 1
+VJE      = 0.785               MJE      = 0.431
+VJC      = 0.553               MJC      = 0.375                 
+IS       = '4.20E-18+DIS_PNP12A25'   
+BF       = '2.025+DBF_PNP12A25'                
+NF       = '1.01+DNF_PNP12A25'
+CJE      = '3.20E-14+DCJE_PNP12A25'    
+CJC      = '3.98E-14+DCJC_PNP12A25'                                                     
*
***********************************************************************************
*            1.2V  P+/NWELL/PSUB BIPOLAR MODEL (Emitter Area=2x2um^2)     *
***********************************************************************************
*                  
.model pnp12a4 pnp
+LEVEL    = 1                   
+VAF      = 553.93              IKF      = 5.00E-04            
+ISE      = 7.00E-18            NE       = 1.5                 BR       = 8.75E-04            
+NR       = 1.016               VAR      = 21.0                IKR      = 2.09E-03            
+ISC      = 5.00E-17            NC       = 1.5                 RB       = 110.0               
+IRB      = 2.00E-03            RBM      = 2.0                 RE       = 3.5                 
+RC       = 11.00               XTI      = 3.0                 EG       = 1.16                
+TREF     = 25.0                NKF      = 0.5                 TLEV     = 0
+TLEVC    = 1                   XTB      = 0.00                TBF1     = 5.55E-03           
+TBF2     = 8.00E-07            TBR1     = -1.40E-03           TBR2     = 1.22E-05
+TIKF1    = -5.25E-03           TIKF2    = 2.00E-05            TNF1     = 9.3769E-05          
+TNF2     = 2.1422E-07          TNR1     = 9.104E-05           TNR2     = 2.5525E-07                              
+CTC      = 2.87E-3             CTE      = 8.72E-4                                     
+TVJC     = 0.0021353             TVJE     = 0.0012231       SUBS     = 1   
+VJE      = 0.785               MJE      = 0.431
+VJC      = 0.553               MJC      = 0.375                                  
+IS       = '9.30E-19+DIS_PNP12A4'  
+BF       = '1.91+DBF_PNP12A4'               
+NF       = '1.015+DNF_PNP12A4' 
+CJE      = '5.48E-15+DCJE_PNP12A4'  
+CJC      = '2.58E-14+DCJC_PNP12A4'                        
*
***********************************************************************************
*           3.3V  P+/NWELL/PSUB BIPOLAR MODEL (Emitter Area=10x10um^2)    *
***********************************************************************************
*                  
.model pnp33a100 pnp           
+LEVEL    = 1                   
+VAF      = 553.93              IKF      = 0.0024            
+ISE      = 8.1e-017            NE       = 1.5                 BR       = 0.00804            
+NR       = 1.0                 VAR      = 32                  IKR      = 0.00209                         
+ISC      = 5e-017              NC       = 1.5                 RB       = 42.0                 
+IRB      = 0.00236             RBM      = 1.947               RE       = 2.502                  
+RC       = 11.11               XTI      = 3.0                 EG       = 1.16           
+TREF     = 25.0                NKF      = 0.5                 TLEV     = 0
+TLEVC    = 1                   XTB      = 0.00                TBF1     = 0.0048
+TBF2     = 2.158e-006          TBR1     = -0.00062            TBR2     = 7.00E-06
+TIKF1    = -0.001583           TIKF2    = -9.154e-006         TIKR1    = 0         
+TNE1     = 1.1e-005            TNF1     = -5.5e-005	       SUBS     = 1
+CTC      = 2.34e-003           CTE      = 7.80e-004            
+VJE      = 0.814               MJE      = 0.378              
+VJC      = 0.549               MJC      = 0.384                                       
+TVJC     = 0.0021353           TVJE     = 1.50e-003
+IS       = '1.0e-017+DIS_PNP33A100'  
+BF       = '1.97+DBF_PNP33A100'               
+NF       = '1.005+DNF_PNP33A100' 
+CJC      = '6.82e-014+DCJC_PNP33A100'
+CJE      = '1.24e-013+DCJE_PNP33A100' 
*
***********************************************************************************
*            3.3V  P+/NWELL/PSUB BIPOLAR MODEL (Emitter Area=5x5um^2)     *
***********************************************************************************
*                  
.model pnp33a25 pnp
+LEVEL    = 1                   
+VAF      = 553.93              IKF      = 0.001846             
+ISE      = 2.55e-017           NE       = 1.5                 BR       = 0.00321            
+NR       = 1                   VAR      = 30                  IKR      = 0.0021             
+ISC      = 5e-017              NC       = 1.5                 RB       = 75                 
+IRB      = 0.00196             RBM      = 1.1                 RE       = 1.078                  
+RC       = 11.11               XTI      = 3.0                 EG       = 1.16           
+TREF     = 25.0                NKF      = 0.5                 TLEV     = 0
+TLEVC    = 1                   XTB      = 0.00                TBF1     = 0.00515             
+TBF2     = 5.213e-006          TBR1     = -0.00065            TBR2     = 7.5e-006
+TIKF1    = -0.003423           TIKF2    = -7.692e-006         TIKR1    = 0                   
+TNE1     = 1.34e-006           TNF1     = -5.0e-005           SUBS     = 1
+CTC      = 0.00234             CTE      = 0.00078            
+VJE      = 0.814               MJE      = 0.378              
+VJC      = 0.549               MJC      = 0.384                                       
+TVJC     = 0.0021353            TVJE     = 0.0015
+IS       = '2.8e-018+DIS_PNP33A25'  
+BF       = '1.895+DBF_PNP33A25'               
+NF       = '1.007+DNF_PNP33A25' 
+CJC      = '3.98e-014+DCJC_PNP33A25'
+CJE      = '3.14e-014+DCJE_PNP33A25'                                             
*
***********************************************************************************
*            3.3V  P+/NWELL/PSUB BIPOLAR MODEL (Emitter Area=2x2um^2)     *
***********************************************************************************
*                  
.model pnp33a4 pnp
+LEVEL    = 1                   
+VAF      = 550.0               IKF      = 0.001076            
+ISE      = 1.255e-017          NE       = 1.5                 BR       = 0.000875             
+NR       = 0.995               VAR      = 26                  IKR      = 0.00209             
+ISC      = 5e-017              NC       = 1.5                 RB       = 118                 
+IRB      = 0.00184             RBM      = 1.2                 RE       = 4.374                  
+RC       = 11.11               XTI      = 3.0                 EG       = 1.16                      
+TREF     = 25.0                NKF      = 0.5                 TLEV     = 0
+TLEVC    = 1                   XTB      = 0.00                TBF1     = 0.005687           
+TBF2     = 9.093e-006          TBR1     = -0.001381           TBR2     = 1.287e-005
+TIKF1    = -0.001082           TIKF2    = -2.3e-005           TIKR1    = 0
+TNE1     = 1.2e-006            TNF1     = -5.0e-006           SUBS     = 1
+CTC      = 2.34e-003           CTE      = 7.80e-004            
+VJE      = 0.814               MJE      = 0.378              
+VJC      = 0.549               MJC      = 0.384                                       
+TVJC     = 0.0021353           TVJE     = 1.50e-003
+IS       = '6.7e-019+DIS_PNP33A4'  
+BF       = '1.707+DBF_PNP33A4'               
+NF       = '1.016+DNF_PNP33A4' 
+CJC      = '2.58e-014+DCJC_PNP33A4'
+CJE      = '5.25e-015+DCJE_PNP33A4'
*
***********************************************************************************
*    1.2V Vertival N+/PWELL/DeepNWELL BIPOLAR MODEL (Emitter Area=20x20um^2)       *
***********************************************************************************
*                  
.model npn12a400 npn
+LEVEL    = 1                                                
+VAF      = 79.186              IKF      = 0.066           
+ISE      = 6.99E-15            NE       = 1.445               BR       = 0.63            
+NR       = 1.007               VAR      = 54.8349             IKR      = 0.0885            
+ISC      = 7.94E-16            NC       = 1.3845              RB       = 80.4693            
+IRB      = 5.36E-03            RBM      = 1.8414              RE       = 2.3635                 
+RC       = 1.2625              XTI      = 3.0                 EG       = 1.16                
+VJE      = 0.791           MJE      = 0.458  
+VJC      = 0.656               MJC      = 0.348
+TREF     = 25.0                NKF      = 0.5                 TLEV     = 0                   
+TLEVC    = 1                   XTB      = 0.00                TBF1     = 4.85E-03              
+TBF2     = -2.00E-05           TBR1     = 3.00E-04            TIKF1    = 6.37E-03
+TIKF2    = 5.27E-05            TIKR1    = 1.00E-03            TNE1     = 1.86E-03
+TNE2     = 2.62E-05            TNF1     = 1.00E-05            TNR2     = 5.00E-07
+TRB1     = 3.52E-03
+CTC      = 0.0012169             CTE      = 0.000759             TVJC     = 0.001722
+TVJE     = 0.00112              SUBS     = 1
+IS       = '8.15E-17+DIS_NPN12A400'
+BF       = '8.38+DBF_NPN12A400'
+NF       = '1.005+DNF_NPN12A400'
+CJC      = '4.18E-13+DCJC_NPN12A400'
+CJE      = '5.26E-13+DCJE_NPN12A400'
*
***********************************************************************************
*    1.2V Vertival N+/PWELL/DeepNWELL BIPOLAR MODEL (Emitter Area=15x15um^2)      *
***********************************************************************************
*                  
.model npn12a225 npn
+LEVEL    = 1                                                
+VAF      = 79.186              IKF      = 0.056           
+ISE      = 3.50E-15            NE       = 1.445               BR       = 0.533            
+NR       = 1.007               VAR      = 54.8349             IKR      = 0.0285            
+ISC      = 5.94E-16            NC       = 1.3845              RB       = 80.4693            
+IRB      = 5.36E-03            RBM      = 1.8414              RE       = 5.3635                 
+RC       = 3.2625              XTI      = 3.0                 EG       = 1.16                
+VJE      = 0.791           MJE      = 0.458  
+VJC      = 0.656               MJC      = 0.348
+TREF     = 25.0                NKF      = 0.5                 TLEV     = 0                   
+TLEVC    = 1                   XTB      = 0.00                TBF1     = 5.00E-03              
+TBF2     = -1.50E-05           TBR1     = 3.00E-04            TIKF1    = -2.00E-03
+TIKR1    = 1.00E-03            TNE1     = 1.86E-03            TNE2     = 2.62E-05            
+TNF1     = 1.20E-05            TNR1     = 5.00E-06            TNR2     = 6.00E-07
+TRB1     = 3.52E-03
+CTC      = 0.0012169             CTE      = 0.000759             TVJC     = 0.001722
+TVJE     = 0.00112             SUBS     = 1
+IS       ='4.90E-17+DIS_NPN12A225'
+BF       ='8.15+DBF_NPN12A225'
+NF       ='1.005+DNF_NPN12A225'
+CJC      ='2.73E-13+DCJC_NPN12A225'
+CJE      ='2.96E-13+DCJE_NPN12A225'
*
***********************************************************************************
*    1.2V Vertival N+/PWELL/DeepNWELL BIPOLAR MODEL (Emitter Area=10x10um^2)       *
***********************************************************************************
*                  
.model npn12a100 npn           
+LEVEL    = 1                   
+VAF      = 77.602              IKF      = 0.0677              
+ISE      = 3.9794E-15          NE       = 1.6064              BR       = 0.3929              
+NR       = 1.0216              VAR      = 50.0                IKR      = 0.0428              
+ISC      = 2.9753E-16          NC       = 1.33                RB       = 49.707              
+IRB      = 5.36E-03            RBM      = 1.8414              RE       = 10.0009             
+RC       = 3.2625              XTI      = 3.0                 EG       = 1.16                
+TREF     = 25.0                NKF      = 0.5                 TLEV     = 0  
+TLEVC    = 1                   XTB      = 0.00                TBF1     = 5.8873E-03          
+TBR1     = 3.9523E-04          TIKF1    = -5.2308E-03         TNE1     = 2.4152E-04          
+TNF1     = 6.00E-06            TNF2     = -7.85E-07           TNR1     = -4.50E-05           
+TRB1     = 7.047E-03           TRB2     = 1.00E-06            
+TRM1     = 0.00                TRM2     = 0.00           
+CTC      = 0.0012169             CTE      = 0.000759         
+VJE      = 0.791           MJE      = 0.458  
+VJC      = 0.656               MJC      = 0.348          
+TVJC     = 0.001722               TVJE     = 0.00112            SUBS     = 1
+IS       = '3.1003E-17+DIS_NPN12A100'  
+BF       = '7.72+DBF_NPN12A100'                
+NF       = '1.021+DNF_NPN12A100'  
+CJE      = '1.32E-13+DCJE_NPN12A100'  
+CJC      = '1.58E-13+DCJC_NPN12A100'  
*
***********************************************************************************
*    1.2V Vertival N+/PWELL/DeepNWELL BIPOLAR MODEL (Emitter Area=5x5um^2)       *
***********************************************************************************
*                  
.model npn12a25 npn
+LEVEL    = 1                   
+VAF      = 77.602              IKF      = 0.0201              
+ISE      = 7.1448E-17          NE       = 1.367               BR       = 0.2059              
+NR       = 1.02                VAR      = 50.0                IKR      = 0.0428              
+ISC      = 1.0894E-16          NC       = 1.3846              RB       = 58.4046             
+IRB      = 5.36E-03            RBM      = 1.8414              RE       = 18.5                
+RC       = 0.8                 XTI      = 3.0                 EG       = 1.16                
+TREF     = 25.0                NKF      = 0.5                 TLEV     = 0  
+TLEVC    = 1                   XTB      = 0.00                TBF1     = 5.9124E-03          
+TBR1     = 2.8544E-04          TIKF1    = -5.0362E-03         TNE1     = 3.192E-04            
+TNF1     = 6.00E-06            TNF2     = -7.85E-07           TNR1     = -6.75E-05   
+TRB1     = 5.4208E-03          TRB2     = 1.00E-06            
+TRM1     = 0.00                TRM2     = 0.00           
+CTC      = 0.0012169             CTE      = 0.000759         
+VJE      = 0.791           MJE      = 0.458  
+VJC      = 0.656               MJC      = 0.348          
+TVJC     = 0.001722               TVJE     = 0.00112           SUBS     = 1
+IS       = '8.317E-18+DIS_NPN12A25'   
+BF       = '7.916+DBF_NPN12A25'                
+NF       = '1.019+DNF_NPN12A25'  
+CJE      = '3.29E-14+DCJE_NPN12A25'    
+CJC      = '7.49E-14+DCJC_NPN12A25'                                                     
*
***********************************************************************************
*    1.2V Vertival N+/PWELL/DeepNWELL BIPOLAR MODEL (Emitter Area=2x2um^2)       *
***********************************************************************************
*                  
.model npn12a4 npn
+LEVEL    = 1                   
+VAF      = 89.2423             IKF      = 4.0271E-03          
+ISE      = 2.605E-17           NE       = 1.395               BR       = 0.0699              
+NR       = 1.02                VAR      = 47.5                IKR      = 0.0428              
+ISC      = 1.0383E-16          NC       = 1.3846              RB       = 93.75               
+IRB      = 5.36E-03            RBM      = 1.8414              RE       = 41.7325             
+RC       = 0.8                 XTI      = 3.0                 EG       = 1.16                
+TREF     = 25.0                NKF      = 0.5                 TLEV     = 0  
+TLEVC    = 1                   XTB      = 0.00                TBF1     = 6.458E-03           
+TBR1     = 1.9981E-04          TIKF1    = -4.4822E-03         TNE1     = 3.192E-04           
+TNF1     = 6.00E-06            TNF2     = -7.85E-07           TNR1     = -6.75E-05           
+TRB1     = 5.4208E-03          TRB2     = 1.00E-06            
+TRM1     = 0.00                TRM2     = 0.00           
+CTC      = 0.0012169             CTE      = 0.000759         
+VJE      = 0.791           MJE      = 0.458  
+VJC      = 0.656               MJC      = 0.348          
+TVJC     = 0.001722               TVJE     = 0.00112            SUBS     = 1
+IS       = '1.6833E-18+DIS_NPN12A4'  
+BF       = '7.975+DBF_NPN12A4'               
+NF       = '1.02+DNF_NPN12A4' 
+CJE      = '5.26E-15+DCJE_NPN12A4'  
+CJC      = '3.96E-14+DCJC_NPN12A4'                        
*
***********************************************************************************
*    3.3V Vertival N+/PWELL/DeepNWELL BIPOLAR MODEL (Emitter Area=10x10um^2)       *
***********************************************************************************
*                  
.model npn33a100 npn           
+LEVEL    = 1                   
+VAF      = 122.2577            IKF      = 0.072               
+ISE      = 2.0996E-17          NE       = 1.2679              BR       = 0.272               
+NR       = 1.02                VAR      = 70.0                IKR      = 0.0911              
+ISC      = 5.3835E-16          NC       = 1.3984              RB       = 49.707              
+IRB      = 5.36E-03            RBM      = 1.8414              RE       = 9.0633              
+RC       = 3.2625              XTI      = 3.0                 EG       = 1.16                
+TREF     = 25.0                NKF      = 0.5                 TLEV     = 0  
+TLEVC    = 1                   XTB      = 0.00                TBF1     = 5.8292E-03          
+TBR1     = 2.70E-04            TIKF1    = -4.92E-03           TNE1     = 5.475E-04           
+TNE2     = 2.50E-06            
+TNF1     = 6.09E-05            TNF2     = -1.5602E-06         TNR1     = -7.865E-05          
+TRB1     = 6.4947E-03          TRB2     = 1.00E-06            
+TRM1     = 0.00                TRM2     = 0.00           
+CTC      = 0.0012169             CTE      = 0.00095         
+TVJC     = 0.001722               TVJE     = 0.0017                
+VJE      = 0.653               MJE      = 0.267                
+VJC      = 0.656               MJC      = 0.348              SUBS     = 1    
+IS       = '2.2019E-17+DIS_NPN33A100'  
+BF       = '5.875+DBF_NPN33A100'               
+NF       = '1.02+DNF_NPN33A100' 
+CJC      = '1.58e-013+DCJC_NPN33A100'  
+CJE      = '9.00e-014+DCJE_NPN33A100'   
*
***********************************************************************************
*    3.3V Vertival N+/PWELL/DeepNWELL BIPOLAR MODEL (Emitter Area=5x5um^2)       *
***********************************************************************************
*                  
.model npn33a25 npn
+LEVEL    = 1                   
+VAF      = 125.3               IKF      = 0.0277              
+ISE      = 2.6766E-17          NE       = 1.35                BR       = 0.1441              
+NR       = 1.02                VAR      = 63.0                IKR      = 0.0911              
+ISC      = 1.0565E-16          NC       = 1.3725              RB       = 60.0                
+IRB      = 5.36E-03            RBM      = 1.8414              RE       = 15.3886             
+RC       = 1.6313              XTI      = 3.0                 EG       = 1.16                
+TREF     = 25.0                NKF      = 0.5                 TLEV     = 0  
+TLEVC    = 1                   XTB      = 0.00                TBF1     = 6.1119E-03          
+TBR1     = 2.89E-04            TIKF1    = -5.904E-03          TNE1     = 5.475E-04           
+TNE2     = 2.50E-06            
+TNF1     = 6.09E-05            TNF2     = -1.5602E-06         TNR1     = -7.8652E-05         
+TRB1     = 6.4947E-03          TRB2     = 1.00E-06            
+TRM1     = 0.00                TRM2     = 0.00           
+CTC      = 0.0012169             CTE      = 0.00095         
+TVJC     = 0.001722               TVJE     = 0.0017                
+VJE      = 0.653               MJE      = 0.267                
+VJC      = 0.656               MJC      = 0.348              SUBS     = 1
+IS       = '5.9661E-18+DIS_NPN33A25'  
+BF       = '5.952+DBF_NPN33A25'               
+NF       = '1.02+DNF_NPN33A25' 
+CJC      = '7.49e-014+DCJC_NPN33A25'  
+CJE      = '2.25e-014+DCJE_NPN33A25'                                             
*
***********************************************************************************
*    3.3V Vertival N+/PWELL/DeepNWELL BIPOLAR MODEL (Emitter Area=2x2um^2)       *
***********************************************************************************
*                  
.model npn33a4 npn
+LEVEL    = 1                   
+VAF      = 132.818             IKF      = 7.7992E-03          
+ISE      = 3.3311E-17          NE       = 1.4728              BR       = 0.0508              
+NR       = 1.02                VAR      = 55.5                IKR      = 0.0911              
+ISC      = 9.1917E-17          NC       = 1.3725              RB       = 68.75               
+IRB      = 5.36E-03            RBM      = 1.8414              RE       = 33.4628             
+RC       = 0.8238              XTI      = 3.0                 EG       = 1.16                
+TREF     = 25.0                NKF      = 0.5                 TLEV     = 0  
+TLEVC    = 1                   XTB      = 0.00                TBF1     = 6.7342E-03          
+TBR1     = 3.0345E-04          TIKF1    = -6.1402E-03         TNE1     = 9.2125E-04          
+TNE2     = 9.275E-06           
+TNF1     = 9.135E-05           TNF2     = -1.5602E-06         TNR1     = -5.5057E-05         
+TRB1     = 6.4947E-03          TRB2     = 1.00E-06            
+TRM1     = 0.00                TRM2     = 0.00           
+CTC      = 0.0012169             CTE      = 0.00095         
+TVJC     = 0.001722               TVJE     = 0.0017                
+VJE      = 0.653               MJE      = 0.267                
+VJC      = 0.656               MJC      = 0.348              SUBS     = 1
+IS       = '1.2209E-18+DIS_NPN33A4'  
+BF       = '6.01+DBF_NPN33A4'               
+NF       = '1.02+DNF_NPN33A4'   
+CJC      = '3.96e-014+DCJC_NPN33A4'  
+CJE      = '3.6e-015+DCJE_NPN33A4'  
*
