* SPICE INPUT		Tue Jul 31 18:28:43 2018	ad01d0
* EV_NETLIST Version AMD.64 Release B-2008.09.SP5.HF4.26013 2015/05/03
*
*The following line needed for Star-CR:
*CRU_OPT (KEEP_ELEMENTS "^[CR]D")
*
*The following line needed for CDL:
*.BIPOLAR

* Hierarchy Level 0

* Top of hierarchy  cell=ad01d0
.subckt ad01d0 VDD CO S GND CI B A
M1 S N_15 GND GND mn15  l=0.13u w=0.26u m=1
M2 CO N_12 GND GND mn15  l=0.13u w=0.26u m=1
M3 N_6 A GND GND mn15  l=0.13u w=0.27u m=1
M4 N_69 N_6 GND GND mn15  l=0.13u w=0.27u m=1
M5 N_69 N_11 N_5 GND mn15  l=0.13u w=0.27u m=1
M6 N_5 B N_6 GND mn15  l=0.13u w=0.27u m=1
M7 N_11 B GND GND mn15  l=0.13u w=0.27u m=1
M8 GND N_5 N_10 GND mn15  l=0.13u w=0.27u m=1
M9 N_13 N_5 N_12 GND mn15  l=0.13u w=0.27u m=1
M10 N_11 N_10 N_12 GND mn15  l=0.13u w=0.27u m=1
M11 N_10 N_13 N_15 GND mn15  l=0.13u w=0.27u m=1
M12 N_5 CI N_15 GND mn15  l=0.13u w=0.27u m=1
M13 N_13 CI GND GND mn15  l=0.13u w=0.27u m=1
M14 S N_15 VDD VDD mp15  l=0.13u w=0.4u m=1
M15 CO N_12 VDD VDD mp15  l=0.13u w=0.4u m=1
M16 N_6 A VDD VDD mp15  l=0.13u w=0.4u m=1
M17 N_20 N_6 VDD VDD mp15  l=0.13u w=0.4u m=1
M18 N_6 N_11 N_5 VDD mp15  l=0.13u w=0.27u m=1
M19 N_20 B N_5 VDD mp15  l=0.13u w=0.4u m=1
M20 N_11 B VDD VDD mp15  l=0.13u w=0.4u m=1
M21 N_10 N_5 VDD VDD mp15  l=0.13u w=0.4u m=1
M22 N_11 N_5 N_12 VDD mp15  l=0.13u w=0.27u m=1
M23 N_13 N_10 N_12 VDD mp15  l=0.13u w=0.27u m=1
M24 N_5 N_13 N_15 VDD mp15  l=0.13u w=0.27u m=1
M25 N_10 CI N_15 VDD mp15  l=0.13u w=0.27u m=1
M26 N_13 CI VDD VDD mp15  l=0.13u w=0.4u m=1
.ends ad01d0
* SPICE INPUT		Tue Jul 31 18:28:58 2018	ad01d1
* EV_NETLIST Version AMD.64 Release B-2008.09.SP5.HF4.26013 2015/05/03
*
*The following line needed for Star-CR:
*CRU_OPT (KEEP_ELEMENTS "^[CR]D")
*
*The following line needed for CDL:
*.BIPOLAR

* Hierarchy Level 0

* Top of hierarchy  cell=ad01d1
.subckt ad01d1 GND S CO CI VDD B A
M1 N_2 A GND GND mn15  l=0.13u w=0.38u m=1
M2 N_20 N_2 GND GND mn15  l=0.13u w=0.46u m=1
M3 N_20 N_8 N_3 GND mn15  l=0.13u w=0.46u m=1
M4 N_3 B N_2 GND mn15  l=0.13u w=0.33u m=1
M5 N_8 B GND GND mn15  l=0.13u w=0.38u m=1
M6 GND N_3 N_6 GND mn15  l=0.13u w=0.38u m=1
M7 N_10 N_3 N_9 GND mn15  l=0.13u w=0.27u m=1
M8 N_8 N_6 N_9 GND mn15  l=0.13u w=0.27u m=1
M9 N_6 N_10 N_12 GND mn15  l=0.13u w=0.27u m=1
M10 N_3 CI N_12 GND mn15  l=0.13u w=0.27u m=1
M11 GND CI N_10 GND mn15  l=0.13u w=0.37u m=1
M12 S N_12 GND GND mn15  l=0.13u w=0.43u m=1
M13 CO N_9 GND GND mn15  l=0.13u w=0.46u m=1
M14 VDD A N_2 VDD mp15  l=0.13u w=0.53u m=1
M15 N_73 N_2 VDD VDD mp15  l=0.13u w=0.66u m=1
M16 N_2 N_8 N_3 VDD mp15  l=0.13u w=0.315u m=1
M17 N_73 B N_3 VDD mp15  l=0.13u w=0.66u m=1
M18 N_8 B VDD VDD mp15  l=0.13u w=0.53u m=1
M19 N_6 N_3 VDD VDD mp15  l=0.13u w=0.53u m=1
M20 N_8 N_3 N_9 VDD mp15  l=0.13u w=0.27u m=1
M21 N_10 N_6 N_9 VDD mp15  l=0.13u w=0.27u m=1
M22 N_3 N_10 N_12 VDD mp15  l=0.13u w=0.27u m=1
M23 N_6 CI N_12 VDD mp15  l=0.13u w=0.27u m=1
M24 N_10 CI VDD VDD mp15  l=0.13u w=0.27u m=1
M25 VDD CI N_10 VDD mp15  l=0.13u w=0.26u m=1
M26 S N_12 VDD VDD mp15  l=0.13u w=0.69u m=1
M27 CO N_9 VDD VDD mp15  l=0.13u w=0.35u m=1
M28 CO N_9 VDD VDD mp15  l=0.13u w=0.35u m=1
.ends ad01d1
* SPICE INPUT		Tue Jul 31 18:29:15 2018	ad01d2
* EV_NETLIST Version AMD.64 Release B-2008.09.SP5.HF4.26013 2015/05/03
*
*The following line needed for Star-CR:
*CRU_OPT (KEEP_ELEMENTS "^[CR]D")
*
*The following line needed for CDL:
*.BIPOLAR

* Hierarchy Level 0

* Top of hierarchy  cell=ad01d2
.subckt ad01d2 VDD S CO GND CI B A
M1 N_3 B N_2 GND mn15  l=0.13u w=0.36u m=1
M2 N_29 N_9 N_3 GND mn15  l=0.13u w=0.46u m=1
M3 N_2 A GND GND mn15  l=0.13u w=0.4u m=1
M4 N_29 N_2 GND GND mn15  l=0.13u w=0.46u m=1
M5 N_9 N_8 N_19 GND mn15  l=0.13u w=0.36u m=1
M6 N_19 N_3 N_15 GND mn15  l=0.13u w=0.36u m=1
M7 N_8 N_15 N_11 GND mn15  l=0.13u w=0.18u m=1
M8 N_11 N_15 N_8 GND mn15  l=0.13u w=0.18u m=1
M9 N_3 CI N_11 GND mn15  l=0.13u w=0.35u m=1
M10 GND CI N_15 GND mn15  l=0.13u w=0.2u m=1
M11 N_15 CI GND GND mn15  l=0.13u w=0.2u m=1
M12 GND N_11 S GND mn15  l=0.13u w=0.46u m=1
M13 GND N_11 S GND mn15  l=0.13u w=0.46u m=1
M14 GND N_19 CO GND mn15  l=0.13u w=0.46u m=1
M15 CO N_19 GND GND mn15  l=0.13u w=0.46u m=1
M16 N_8 N_3 GND GND mn15  l=0.13u w=0.41u m=1
M17 N_9 B GND GND mn15  l=0.13u w=0.4u m=1
M18 N_23 B N_3 VDD mp15  l=0.13u w=0.66u m=1
M19 N_3 N_9 N_2 VDD mp15  l=0.13u w=0.27u m=1
M20 N_3 N_9 N_2 VDD mp15  l=0.13u w=0.26u m=1
M21 VDD A N_2 VDD mp15  l=0.13u w=0.59u m=1
M22 N_23 N_2 VDD VDD mp15  l=0.13u w=0.66u m=1
M23 N_8 N_3 VDD VDD mp15  l=0.13u w=0.56u m=1
M24 N_9 B VDD VDD mp15  l=0.13u w=0.56u m=1
M25 N_11 CI N_8 VDD mp15  l=0.13u w=0.53u m=1
M26 N_15 CI VDD VDD mp15  l=0.13u w=0.59u m=1
M27 VDD N_11 S VDD mp15  l=0.13u w=0.69u m=1
M28 VDD N_11 S VDD mp15  l=0.13u w=0.69u m=1
M29 CO N_19 VDD VDD mp15  l=0.13u w=0.68u m=1
M30 VDD N_19 CO VDD mp15  l=0.13u w=0.69u m=1
M31 N_9 N_3 N_19 VDD mp15  l=0.13u w=0.53u m=1
M32 N_19 N_8 N_15 VDD mp15  l=0.13u w=0.53u m=1
M33 N_3 N_15 N_11 VDD mp15  l=0.13u w=0.49u m=1
.ends ad01d2
* SPICE INPUT		Tue Jul 31 18:29:28 2018	ad01d3
* EV_NETLIST Version AMD.64 Release B-2008.09.SP5.HF4.26013 2015/05/03
*
*The following line needed for Star-CR:
*CRU_OPT (KEEP_ELEMENTS "^[CR]D")
*
*The following line needed for CDL:
*.BIPOLAR

* Hierarchy Level 0

* Top of hierarchy  cell=ad01d3
.subckt ad01d3 VDD S CO GND CI B A
M1 N_2 A GND GND mn15  l=0.13u w=0.4u m=1
M2 N_92 N_2 GND GND mn15  l=0.13u w=0.46u m=1
M3 N_92 N_9 N_3 GND mn15  l=0.13u w=0.46u m=1
M4 N_3 B N_2 GND mn15  l=0.13u w=0.36u m=1
M5 N_9 B GND GND mn15  l=0.13u w=0.4u m=1
M6 N_8 N_3 GND GND mn15  l=0.13u w=0.45u m=1
M7 S N_18 GND GND mn15  l=0.13u w=0.46u m=1
M8 S N_18 GND GND mn15  l=0.13u w=0.46u m=1
M9 S N_18 GND GND mn15  l=0.13u w=0.46u m=1
M10 N_14 N_3 N_15 GND mn15  l=0.13u w=0.36u m=1
M11 N_9 N_8 N_14 GND mn15  l=0.13u w=0.36u m=1
M12 N_3 CI N_18 GND mn15  l=0.13u w=0.35u m=1
M13 N_8 N_15 N_18 GND mn15  l=0.13u w=0.19u m=1
M14 N_18 N_15 N_8 GND mn15  l=0.13u w=0.17u m=1
M15 CO N_14 GND GND mn15  l=0.13u w=0.46u m=1
M16 CO N_14 GND GND mn15  l=0.13u w=0.46u m=1
M17 CO N_14 GND GND mn15  l=0.13u w=0.46u m=1
M18 GND CI N_15 GND mn15  l=0.13u w=0.21u m=1
M19 N_15 CI GND GND mn15  l=0.13u w=0.19u m=1
M20 VDD A N_2 VDD mp15  l=0.13u w=0.58u m=1
M21 N_26 N_2 VDD VDD mp15  l=0.13u w=0.66u m=1
M22 N_3 N_9 N_2 VDD mp15  l=0.13u w=0.27u m=1
M23 N_3 N_9 N_2 VDD mp15  l=0.13u w=0.26u m=1
M24 N_26 B N_3 VDD mp15  l=0.13u w=0.66u m=1
M25 N_9 B VDD VDD mp15  l=0.13u w=0.56u m=1
M26 N_8 N_3 VDD VDD mp15  l=0.13u w=0.56u m=1
M27 S N_18 VDD VDD mp15  l=0.13u w=0.69u m=1
M28 S N_18 VDD VDD mp15  l=0.13u w=0.69u m=1
M29 S N_18 VDD VDD mp15  l=0.13u w=0.69u m=1
M30 N_9 N_3 N_14 VDD mp15  l=0.13u w=0.53u m=1
M31 N_15 N_8 N_14 VDD mp15  l=0.13u w=0.53u m=1
M32 N_18 N_15 N_3 VDD mp15  l=0.13u w=0.49u m=1
M33 N_18 CI N_8 VDD mp15  l=0.13u w=0.53u m=1
M34 CO N_14 VDD VDD mp15  l=0.13u w=0.71u m=1
M35 CO N_14 VDD VDD mp15  l=0.13u w=0.71u m=1
M36 CO N_14 VDD VDD mp15  l=0.13u w=0.65u m=1
M37 N_15 CI VDD VDD mp15  l=0.13u w=0.59u m=1
.ends ad01d3
* SPICE INPUT		Tue Jul 31 18:29:41 2018	ad01dm
* EV_NETLIST Version AMD.64 Release B-2008.09.SP5.HF4.26013 2015/05/03
*
*The following line needed for Star-CR:
*CRU_OPT (KEEP_ELEMENTS "^[CR]D")
*
*The following line needed for CDL:
*.BIPOLAR

* Hierarchy Level 0

* Top of hierarchy  cell=ad01dm
.subckt ad01dm GND S CO CI VDD B A
M1 S N_17 GND GND mn15  l=0.13u w=0.35u m=1
M2 CO N_14 GND GND mn15  l=0.13u w=0.35u m=1
M3 N_6 CI GND GND mn15  l=0.13u w=0.31u m=1
M4 N_7 A GND GND mn15  l=0.13u w=0.31u m=1
M5 N_20 N_7 GND GND mn15  l=0.13u w=0.31u m=1
M6 N_20 N_13 N_8 GND mn15  l=0.13u w=0.31u m=1
M7 N_8 B N_7 GND mn15  l=0.13u w=0.29u m=1
M8 N_13 B GND GND mn15  l=0.13u w=0.31u m=1
M9 GND N_8 N_11 GND mn15  l=0.13u w=0.31u m=1
M10 N_6 N_8 N_14 GND mn15  l=0.13u w=0.29u m=1
M11 N_13 N_11 N_14 GND mn15  l=0.13u w=0.29u m=1
M12 N_11 N_6 N_17 GND mn15  l=0.13u w=0.29u m=1
M13 N_8 CI N_17 GND mn15  l=0.13u w=0.29u m=1
M14 S N_17 VDD VDD mp15  l=0.13u w=0.53u m=1
M15 CO N_14 VDD VDD mp15  l=0.13u w=0.52u m=1
M16 N_6 CI VDD VDD mp15  l=0.13u w=0.48u m=1
M17 N_7 A VDD VDD mp15  l=0.13u w=0.48u m=1
M18 N_27 N_7 VDD VDD mp15  l=0.13u w=0.45u m=1
M19 N_7 N_13 N_8 VDD mp15  l=0.13u w=0.31u m=1
M20 N_27 B N_8 VDD mp15  l=0.13u w=0.45u m=1
M21 N_13 B VDD VDD mp15  l=0.13u w=0.48u m=1
M22 N_11 N_8 VDD VDD mp15  l=0.13u w=0.48u m=1
M23 N_13 N_8 N_14 VDD mp15  l=0.13u w=0.35u m=1
M24 N_6 N_11 N_14 VDD mp15  l=0.13u w=0.35u m=1
M25 N_8 N_6 N_17 VDD mp15  l=0.13u w=0.29u m=1
M26 N_11 CI N_17 VDD mp15  l=0.13u w=0.29u m=1
.ends ad01dm
* SPICE INPUT		Tue Jul 31 18:29:53 2018	adfh01d0
* EV_NETLIST Version AMD.64 Release B-2008.09.SP5.HF4.26013 2015/05/03
*
*The following line needed for Star-CR:
*CRU_OPT (KEEP_ELEMENTS "^[CR]D")
*
*The following line needed for CDL:
*.BIPOLAR

* Hierarchy Level 0

* Top of hierarchy  cell=adfh01d0
.subckt adfh01d0 GND S CO A B CI VDD
M1 CO N_13 GND GND mn15  l=0.13u w=0.26u m=1
M2 S N_8 GND GND mn15  l=0.13u w=0.26u m=1
M3 GND CI N_5 GND mn15  l=0.13u w=0.28u m=1
M4 N_7 N_5 GND GND mn15  l=0.13u w=0.28u m=1
M5 N_8 N_14 N_7 GND mn15  l=0.13u w=0.28u m=1
M6 N_13 N_20 N_11 GND mn15  l=0.13u w=0.28u m=1
M7 N_8 N_20 N_5 GND mn15  l=0.13u w=0.28u m=1
M8 N_13 N_14 N_5 GND mn15  l=0.13u w=0.28u m=1
M9 GND B N_11 GND mn15  l=0.13u w=0.46u m=1
M10 N_15 N_11 N_14 GND mn15  l=0.13u w=0.3u m=1
M11 N_20 B N_15 GND mn15  l=0.13u w=0.3u m=1
M12 N_14 B N_16 GND mn15  l=0.13u w=0.28u m=1
M13 N_20 N_11 N_16 GND mn15  l=0.13u w=0.28u m=1
M14 N_15 N_21 GND GND mn15  l=0.13u w=0.36u m=1
M15 N_16 A GND GND mn15  l=0.13u w=0.3u m=1
M16 GND A N_21 GND mn15  l=0.13u w=0.18u m=1
M17 CO N_13 VDD VDD mp15  l=0.13u w=0.4u m=1
M18 S N_8 VDD VDD mp15  l=0.13u w=0.4u m=1
M19 VDD CI N_5 VDD mp15  l=0.13u w=0.35u m=1
M20 VDD N_5 N_7 VDD mp15  l=0.13u w=0.35u m=1
M21 N_5 N_14 N_8 VDD mp15  l=0.13u w=0.28u m=1
M22 N_13 N_14 N_11 VDD mp15  l=0.13u w=0.28u m=1
M23 N_7 N_20 N_8 VDD mp15  l=0.13u w=0.28u m=1
M24 N_5 N_20 N_13 VDD mp15  l=0.13u w=0.28u m=1
M25 N_11 B VDD VDD mp15  l=0.13u w=0.35u m=1
M26 VDD B N_11 VDD mp15  l=0.13u w=0.35u m=1
M27 N_16 B N_20 VDD mp15  l=0.13u w=0.4u m=1
M28 N_14 B N_15 VDD mp15  l=0.13u w=0.4u m=1
M29 N_14 N_11 N_16 VDD mp15  l=0.13u w=0.57u m=1
M30 N_20 N_11 N_15 VDD mp15  l=0.13u w=0.56u m=1
M31 N_15 N_21 VDD VDD mp15  l=0.13u w=0.53u m=1
M32 N_21 A VDD VDD mp15  l=0.13u w=0.3u m=1
M33 N_16 A VDD VDD mp15  l=0.13u w=0.46u m=1
.ends adfh01d0
* SPICE INPUT		Tue Jul 31 18:30:06 2018	adfh01d1
* EV_NETLIST Version AMD.64 Release B-2008.09.SP5.HF4.26013 2015/05/03
*
*The following line needed for Star-CR:
*CRU_OPT (KEEP_ELEMENTS "^[CR]D")
*
*The following line needed for CDL:
*.BIPOLAR

* Hierarchy Level 0

* Top of hierarchy  cell=adfh01d1
.subckt adfh01d1 GND S CO A B CI VDD
M1 N_4 A GND GND mn15  l=0.13u w=0.41u m=1
M2 N_3 A GND GND mn15  l=0.13u w=0.27u m=1
M3 N_8 N_3 GND GND mn15  l=0.13u w=0.41u m=1
M4 N_9 B N_8 GND mn15  l=0.13u w=0.27u m=1
M5 N_6 B N_4 GND mn15  l=0.13u w=0.27u m=1
M6 N_9 N_19 N_4 GND mn15  l=0.13u w=0.27u m=1
M7 CO N_21 GND GND mn15  l=0.13u w=0.46u m=1
M8 S N_16 GND GND mn15  l=0.13u w=0.46u m=1
M9 GND CI N_13 GND mn15  l=0.13u w=0.41u m=1
M10 N_15 N_13 GND GND mn15  l=0.13u w=0.41u m=1
M11 N_16 N_6 N_15 GND mn15  l=0.13u w=0.27u m=1
M12 N_21 N_9 N_19 GND mn15  l=0.13u w=0.27u m=1
M13 N_16 N_9 N_13 GND mn15  l=0.13u w=0.27u m=1
M14 N_21 N_6 N_13 GND mn15  l=0.13u w=0.27u m=1
M15 GND B N_19 GND mn15  l=0.13u w=0.46u m=1
M16 N_8 N_19 N_6 GND mn15  l=0.13u w=0.27u m=1
M17 CO N_21 VDD VDD mp15  l=0.13u w=0.35u m=1
M18 CO N_21 VDD VDD mp15  l=0.13u w=0.35u m=1
M19 S N_16 VDD VDD mp15  l=0.13u w=0.69u m=1
M20 N_4 A VDD VDD mp15  l=0.13u w=0.59u m=1
M21 N_3 A VDD VDD mp15  l=0.13u w=0.35u m=1
M22 VDD CI N_13 VDD mp15  l=0.13u w=0.59u m=1
M23 VDD N_13 N_15 VDD mp15  l=0.13u w=0.59u m=1
M24 N_13 N_6 N_16 VDD mp15  l=0.13u w=0.4u m=1
M25 N_21 N_6 N_19 VDD mp15  l=0.13u w=0.4u m=1
M26 N_15 N_9 N_16 VDD mp15  l=0.13u w=0.4u m=1
M27 N_13 N_9 N_21 VDD mp15  l=0.13u w=0.4u m=1
M28 N_19 B VDD VDD mp15  l=0.13u w=0.35u m=1
M29 VDD B N_19 VDD mp15  l=0.13u w=0.35u m=1
M30 N_8 N_3 VDD VDD mp15  l=0.13u w=0.59u m=1
M31 N_4 B N_9 VDD mp15  l=0.13u w=0.4u m=1
M32 N_6 B N_8 VDD mp15  l=0.13u w=0.4u m=1
M33 N_6 N_19 N_4 VDD mp15  l=0.13u w=0.4u m=1
M34 N_9 N_19 N_8 VDD mp15  l=0.13u w=0.4u m=1
.ends adfh01d1
* SPICE INPUT		Tue Jul 31 18:30:19 2018	adfh01d2
* EV_NETLIST Version AMD.64 Release B-2008.09.SP5.HF4.26013 2015/05/03
*
*The following line needed for Star-CR:
*CRU_OPT (KEEP_ELEMENTS "^[CR]D")
*
*The following line needed for CDL:
*.BIPOLAR

* Hierarchy Level 0

* Top of hierarchy  cell=adfh01d2
.subckt adfh01d2 S GND CO VDD CI B A
M1 CO N_26 GND GND mn15  l=0.13u w=0.46u m=1
M2 GND N_26 CO GND mn15  l=0.13u w=0.46u m=1
M3 GND N_10 S GND mn15  l=0.13u w=0.46u m=1
M4 GND N_10 S GND mn15  l=0.13u w=0.46u m=1
M5 GND CI N_7 GND mn15  l=0.13u w=0.46u m=1
M6 N_10 N_14 N_9 GND mn15  l=0.13u w=0.41u m=1
M7 N_9 N_7 GND GND mn15  l=0.13u w=0.4u m=1
M8 N_13 A GND GND mn15  l=0.13u w=0.38u m=1
M9 N_12 A GND GND mn15  l=0.13u w=0.27u m=1
M10 N_17 N_12 GND GND mn15  l=0.13u w=0.4u m=1
M11 N_18 B N_17 GND mn15  l=0.13u w=0.41u m=1
M12 N_13 B N_14 GND mn15  l=0.13u w=0.41u m=1
M13 N_18 N_23 N_13 GND mn15  l=0.13u w=0.41u m=1
M14 N_14 N_23 N_17 GND mn15  l=0.13u w=0.41u m=1
M15 GND B N_23 GND mn15  l=0.13u w=0.235u m=1
M16 N_23 B GND GND mn15  l=0.13u w=0.225u m=1
M17 N_26 N_14 N_7 GND mn15  l=0.13u w=0.41u m=1
M18 N_7 N_18 N_10 GND mn15  l=0.13u w=0.41u m=1
M19 N_26 N_18 N_23 GND mn15  l=0.13u w=0.41u m=1
M20 N_13 A VDD VDD mp15  l=0.13u w=0.56u m=1
M21 N_12 A VDD VDD mp15  l=0.13u w=0.4u m=1
M22 VDD N_26 CO VDD mp15  l=0.13u w=0.47u m=1
M23 CO N_26 VDD VDD mp15  l=0.13u w=0.47u m=1
M24 VDD N_26 CO VDD mp15  l=0.13u w=0.46u m=1
M25 VDD N_10 S VDD mp15  l=0.13u w=0.69u m=1
M26 VDD N_10 S VDD mp15  l=0.13u w=0.69u m=1
M27 N_17 N_12 VDD VDD mp15  l=0.13u w=0.59u m=1
M28 N_17 N_23 N_18 VDD mp15  l=0.13u w=0.31u m=1
M29 N_17 N_23 N_18 VDD mp15  l=0.13u w=0.31u m=1
M30 N_18 B N_13 VDD mp15  l=0.13u w=0.62u m=1
M31 N_13 N_23 N_14 VDD mp15  l=0.13u w=0.62u m=1
M32 N_17 B N_14 VDD mp15  l=0.13u w=0.62u m=1
M33 VDD B N_23 VDD mp15  l=0.13u w=0.35u m=1
M34 VDD B N_23 VDD mp15  l=0.13u w=0.35u m=1
M35 N_23 N_14 N_26 VDD mp15  l=0.13u w=0.31u m=1
M36 N_23 N_14 N_26 VDD mp15  l=0.13u w=0.31u m=1
M37 N_7 N_18 N_26 VDD mp15  l=0.13u w=0.62u m=1
M38 N_10 N_18 N_9 VDD mp15  l=0.13u w=0.62u m=1
M39 N_7 N_14 N_10 VDD mp15  l=0.13u w=0.62u m=1
M40 N_7 CI VDD VDD mp15  l=0.13u w=0.59u m=1
M41 N_9 N_7 VDD VDD mp15  l=0.13u w=0.59u m=1
.ends adfh01d2
* SPICE INPUT		Tue Jul 31 18:30:31 2018	ah01d0
* EV_NETLIST Version AMD.64 Release B-2008.09.SP5.HF4.26013 2015/05/03
*
*The following line needed for Star-CR:
*CRU_OPT (KEEP_ELEMENTS "^[CR]D")
*
*The following line needed for CDL:
*.BIPOLAR

* Hierarchy Level 0

* Top of hierarchy  cell=ah01d0
.subckt ah01d0 GND CO S VDD A B
M1 N_12 B GND GND mn15  l=0.13u w=0.26u m=1
M2 CO N_4 GND GND mn15  l=0.13u w=0.26u m=1
M3 N_12 A N_4 GND mn15  l=0.13u w=0.26u m=1
M4 N_11 B N_9 GND mn15  l=0.13u w=0.26u m=1
M5 N_6 B GND GND mn15  l=0.13u w=0.26u m=1
M6 N_9 N_10 GND GND mn15  l=0.13u w=0.26u m=1
M7 N_11 N_6 N_10 GND mn15  l=0.13u w=0.26u m=1
M8 N_10 A GND GND mn15  l=0.13u w=0.26u m=1
M9 GND N_11 S GND mn15  l=0.13u w=0.26u m=1
M10 N_4 B VDD VDD mp15  l=0.13u w=0.4u m=1
M11 CO N_4 VDD VDD mp15  l=0.13u w=0.4u m=1
M12 N_4 A VDD VDD mp15  l=0.13u w=0.4u m=1
M13 N_10 B N_11 VDD mp15  l=0.13u w=0.4u m=1
M14 N_6 B VDD VDD mp15  l=0.13u w=0.4u m=1
M15 N_9 N_10 VDD VDD mp15  l=0.13u w=0.4u m=1
M16 N_9 N_6 N_11 VDD mp15  l=0.13u w=0.4u m=1
M17 N_10 A VDD VDD mp15  l=0.13u w=0.4u m=1
M18 S N_11 VDD VDD mp15  l=0.13u w=0.4u m=1
.ends ah01d0
* SPICE INPUT		Tue Jul 31 18:30:44 2018	ah01d1
* EV_NETLIST Version AMD.64 Release B-2008.09.SP5.HF4.26013 2015/05/03
*
*The following line needed for Star-CR:
*CRU_OPT (KEEP_ELEMENTS "^[CR]D")
*
*The following line needed for CDL:
*.BIPOLAR

* Hierarchy Level 0

* Top of hierarchy  cell=ah01d1
.subckt ah01d1 GND S CO A VDD B
M1 S N_8 GND GND mn15  l=0.13u w=0.46u m=1
M2 N_8 B N_6 GND mn15  l=0.13u w=0.28u m=1
M3 N_3 B GND GND mn15  l=0.13u w=0.26u m=1
M4 N_6 N_7 GND GND mn15  l=0.13u w=0.26u m=1
M5 N_8 N_3 N_7 GND mn15  l=0.13u w=0.28u m=1
M6 N_7 A GND GND mn15  l=0.13u w=0.31u m=1
M7 CO N_11 GND GND mn15  l=0.13u w=0.46u m=1
M8 N_12 B GND GND mn15  l=0.13u w=0.28u m=1
M9 N_12 A N_11 GND mn15  l=0.13u w=0.28u m=1
M10 S N_8 VDD VDD mp15  l=0.13u w=0.69u m=1
M11 N_7 B N_8 VDD mp15  l=0.13u w=0.4u m=1
M12 N_3 B VDD VDD mp15  l=0.13u w=0.4u m=1
M13 N_6 N_7 VDD VDD mp15  l=0.13u w=0.4u m=1
M14 N_8 N_3 N_6 VDD mp15  l=0.13u w=0.38u m=1
M15 N_7 A VDD VDD mp15  l=0.13u w=0.46u m=1
M16 CO N_11 VDD VDD mp15  l=0.13u w=0.69u m=1
M17 N_11 B VDD VDD mp15  l=0.13u w=0.28u m=1
M18 N_11 A VDD VDD mp15  l=0.13u w=0.28u m=1
.ends ah01d1
* SPICE INPUT		Tue Jul 31 18:31:00 2018	ah01d2
* EV_NETLIST Version AMD.64 Release B-2008.09.SP5.HF4.26013 2015/05/03
*
*The following line needed for Star-CR:
*CRU_OPT (KEEP_ELEMENTS "^[CR]D")
*
*The following line needed for CDL:
*.BIPOLAR

* Hierarchy Level 0

* Top of hierarchy  cell=ah01d2
.subckt ah01d2 GND S CO VDD A B
M1 N_3 B GND GND mn15  l=0.13u w=0.26u m=1
M2 N_8 B N_7 GND mn15  l=0.13u w=0.31u m=1
M3 S N_8 GND GND mn15  l=0.13u w=0.46u m=1
M4 S N_8 GND GND mn15  l=0.13u w=0.46u m=1
M5 N_9 N_3 N_8 GND mn15  l=0.13u w=0.36u m=1
M6 N_9 A GND GND mn15  l=0.13u w=0.33u m=1
M7 N_7 N_9 GND GND mn15  l=0.13u w=0.31u m=1
M8 N_14 B GND GND mn15  l=0.13u w=0.47u m=1
M9 N_14 A N_12 GND mn15  l=0.13u w=0.47u m=1
M10 GND N_12 CO GND mn15  l=0.13u w=0.46u m=1
M11 GND N_12 CO GND mn15  l=0.13u w=0.46u m=1
M12 N_3 B VDD VDD mp15  l=0.13u w=0.4u m=1
M13 N_9 B N_8 VDD mp15  l=0.13u w=0.52u m=1
M14 S N_8 VDD VDD mp15  l=0.13u w=0.69u m=1
M15 S N_8 VDD VDD mp15  l=0.13u w=0.69u m=1
M16 N_9 A VDD VDD mp15  l=0.13u w=0.51u m=1
M17 N_7 N_9 VDD VDD mp15  l=0.13u w=0.48u m=1
M18 N_8 N_3 N_7 VDD mp15  l=0.13u w=0.48u m=1
M19 VDD B N_12 VDD mp15  l=0.13u w=0.52u m=1
M20 N_12 A VDD VDD mp15  l=0.13u w=0.26u m=1
M21 N_12 A VDD VDD mp15  l=0.13u w=0.26u m=1
M22 VDD N_12 CO VDD mp15  l=0.13u w=0.69u m=1
M23 VDD N_12 CO VDD mp15  l=0.13u w=0.69u m=1
.ends ah01d2
* SPICE INPUT		Tue Jul 31 18:31:18 2018	ah01d3
* EV_NETLIST Version AMD.64 Release B-2008.09.SP5.HF4.26013 2015/05/03
*
*The following line needed for Star-CR:
*CRU_OPT (KEEP_ELEMENTS "^[CR]D")
*
*The following line needed for CDL:
*.BIPOLAR

* Hierarchy Level 0

* Top of hierarchy  cell=ah01d3
.subckt ah01d3 GND CO S VDD A B
M1 GND B N_25 GND mn15  l=0.13u w=0.45u m=1
M2 N_24 B GND GND mn15  l=0.13u w=0.21u m=1
M3 GND B N_4 GND mn15  l=0.13u w=0.28u m=1
M4 N_6 A N_25 GND mn15  l=0.13u w=0.36u m=1
M5 N_6 A N_24 GND mn15  l=0.13u w=0.36u m=1
M6 CO N_6 GND GND mn15  l=0.13u w=0.46u m=1
M7 CO N_6 GND GND mn15  l=0.13u w=0.46u m=1
M8 CO N_6 GND GND mn15  l=0.13u w=0.46u m=1
M9 GND N_13 S GND mn15  l=0.13u w=0.46u m=1
M10 GND N_13 S GND mn15  l=0.13u w=0.46u m=1
M11 GND N_13 S GND mn15  l=0.13u w=0.46u m=1
M12 N_14 B N_13 GND mn15  l=0.13u w=0.27u m=1
M13 N_13 B N_14 GND mn15  l=0.13u w=0.27u m=1
M14 GND N_20 N_14 GND mn15  l=0.13u w=0.25u m=1
M15 N_14 N_20 GND GND mn15  l=0.13u w=0.24u m=1
M16 N_20 N_4 N_13 GND mn15  l=0.13u w=0.27u m=1
M17 N_13 N_4 N_20 GND mn15  l=0.13u w=0.27u m=1
M18 N_20 A GND GND mn15  l=0.13u w=0.3u m=1
M19 N_20 A GND GND mn15  l=0.13u w=0.3u m=1
M20 VDD N_13 S VDD mp15  l=0.13u w=0.69u m=1
M21 VDD N_13 S VDD mp15  l=0.13u w=0.69u m=1
M22 VDD N_13 S VDD mp15  l=0.13u w=0.69u m=1
M23 VDD B N_6 VDD mp15  l=0.13u w=0.41u m=1
M24 N_6 B VDD VDD mp15  l=0.13u w=0.41u m=1
M25 VDD B N_4 VDD mp15  l=0.13u w=0.4u m=1
M26 N_6 A VDD VDD mp15  l=0.13u w=0.41u m=1
M27 VDD A N_6 VDD mp15  l=0.13u w=0.39u m=1
M28 CO N_6 VDD VDD mp15  l=0.13u w=0.69u m=1
M29 CO N_6 VDD VDD mp15  l=0.13u w=0.69u m=1
M30 CO N_6 VDD VDD mp15  l=0.13u w=0.69u m=1
M31 N_13 N_4 N_14 VDD mp15  l=0.13u w=0.37u m=1
M32 N_13 N_4 N_14 VDD mp15  l=0.13u w=0.325u m=1
M33 N_14 N_20 VDD VDD mp15  l=0.13u w=0.33u m=1
M34 VDD N_20 N_14 VDD mp15  l=0.13u w=0.33u m=1
M35 N_20 B N_13 VDD mp15  l=0.13u w=0.36u m=1
M36 N_20 B N_13 VDD mp15  l=0.13u w=0.34u m=1
M37 VDD A N_20 VDD mp15  l=0.13u w=0.5u m=1
M38 N_20 A VDD VDD mp15  l=0.13u w=0.5u m=1
.ends ah01d3
* SPICE INPUT		Tue Jul 31 18:31:30 2018	ah01dm
* EV_NETLIST Version AMD.64 Release B-2008.09.SP5.HF4.26013 2015/05/03
*
*The following line needed for Star-CR:
*CRU_OPT (KEEP_ELEMENTS "^[CR]D")
*
*The following line needed for CDL:
*.BIPOLAR

* Hierarchy Level 0

* Top of hierarchy  cell=ah01dm
.subckt ah01dm GND S CO A VDD B
M1 S N_8 GND GND mn15  l=0.13u w=0.35u m=1
M2 N_8 B N_6 GND mn15  l=0.13u w=0.26u m=1
M3 N_3 B GND GND mn15  l=0.13u w=0.26u m=1
M4 N_6 N_7 GND GND mn15  l=0.13u w=0.26u m=1
M5 N_8 N_3 N_7 GND mn15  l=0.13u w=0.26u m=1
M6 N_7 A GND GND mn15  l=0.13u w=0.26u m=1
M7 CO N_11 GND GND mn15  l=0.13u w=0.35u m=1
M8 N_12 B GND GND mn15  l=0.13u w=0.26u m=1
M9 N_12 A N_11 GND mn15  l=0.13u w=0.26u m=1
M10 S N_8 VDD VDD mp15  l=0.13u w=0.53u m=1
M11 N_7 B N_8 VDD mp15  l=0.13u w=0.4u m=1
M12 N_3 B VDD VDD mp15  l=0.13u w=0.4u m=1
M13 N_6 N_7 VDD VDD mp15  l=0.13u w=0.4u m=1
M14 N_8 N_3 N_6 VDD mp15  l=0.13u w=0.4u m=1
M15 N_7 A VDD VDD mp15  l=0.13u w=0.4u m=1
M16 CO N_11 VDD VDD mp15  l=0.13u w=0.53u m=1
M17 N_11 B VDD VDD mp15  l=0.13u w=0.4u m=1
M18 N_11 A VDD VDD mp15  l=0.13u w=0.4u m=1
.ends ah01dm
* SPICE INPUT		Tue Jul 31 18:31:43 2018	an02d0
* EV_NETLIST Version AMD.64 Release B-2008.09.SP5.HF4.26013 2015/05/03
*
*The following line needed for Star-CR:
*CRU_OPT (KEEP_ELEMENTS "^[CR]D")
*
*The following line needed for CDL:
*.BIPOLAR

* Hierarchy Level 0

* Top of hierarchy  cell=an02d0
.subckt an02d0 GND Y VDD A B
M1 Y N_4 GND GND mn15  l=0.13u w=0.26u m=1
M2 N_5 B N_4 GND mn15  l=0.13u w=0.26u m=1
M3 N_5 A GND GND mn15  l=0.13u w=0.26u m=1
M4 Y N_4 VDD VDD mp15  l=0.13u w=0.4u m=1
M5 N_4 B VDD VDD mp15  l=0.13u w=0.325u m=1
M6 N_4 A VDD VDD mp15  l=0.13u w=0.325u m=1
.ends an02d0
* SPICE INPUT		Tue Jul 31 18:31:57 2018	an02d1
* EV_NETLIST Version AMD.64 Release B-2008.09.SP5.HF4.26013 2015/05/03
*
*The following line needed for Star-CR:
*CRU_OPT (KEEP_ELEMENTS "^[CR]D")
*
*The following line needed for CDL:
*.BIPOLAR

* Hierarchy Level 0

* Top of hierarchy  cell=an02d1
.subckt an02d1 GND Y VDD A B
M1 Y N_4 GND GND mn15  l=0.13u w=0.46u m=1
M2 N_5 B N_4 GND mn15  l=0.13u w=0.26u m=1
M3 N_5 A GND GND mn15  l=0.13u w=0.26u m=1
M4 Y N_4 VDD VDD mp15  l=0.13u w=0.69u m=1
M5 N_4 B VDD VDD mp15  l=0.13u w=0.325u m=1
M6 N_4 A VDD VDD mp15  l=0.13u w=0.325u m=1
.ends an02d1
* SPICE INPUT		Tue Jul 31 18:32:10 2018	an02d1p5
* EV_NETLIST Version AMD.64 Release B-2008.09.SP5.HF4.26013 2015/05/03
*
*The following line needed for Star-CR:
*CRU_OPT (KEEP_ELEMENTS "^[CR]D")
*
*The following line needed for CDL:
*.BIPOLAR

* Hierarchy Level 0

* Top of hierarchy  cell=an02d1p5
.subckt an02d1p5 GND Y VDD A B
M1 N_5 B N_4 GND mn15  l=0.13u w=0.46u m=1
M2 N_5 A GND GND mn15  l=0.13u w=0.46u m=1
M3 Y N_4 GND GND mn15  l=0.13u w=0.46u m=1
M4 N_4 B VDD VDD mp15  l=0.13u w=0.69u m=1
M5 N_4 A VDD VDD mp15  l=0.13u w=0.69u m=1
M6 Y N_4 VDD VDD mp15  l=0.13u w=0.69u m=1
.ends an02d1p5
* SPICE INPUT		Tue Jul 31 18:32:22 2018	an02d2
* EV_NETLIST Version AMD.64 Release B-2008.09.SP5.HF4.26013 2015/05/03
*
*The following line needed for Star-CR:
*CRU_OPT (KEEP_ELEMENTS "^[CR]D")
*
*The following line needed for CDL:
*.BIPOLAR

* Hierarchy Level 0

* Top of hierarchy  cell=an02d2
.subckt an02d2 Y GND VDD A B
M1 GND A N_6 GND mn15  l=0.13u w=0.46u m=1
M2 GND N_4 Y GND mn15  l=0.13u w=0.46u m=1
M3 GND N_4 Y GND mn15  l=0.13u w=0.46u m=1
M4 N_6 B N_4 GND mn15  l=0.13u w=0.46u m=1
M5 N_4 A VDD VDD mp15  l=0.13u w=0.57u m=1
M6 VDD N_4 Y VDD mp15  l=0.13u w=0.69u m=1
M7 VDD N_4 Y VDD mp15  l=0.13u w=0.69u m=1
M8 N_4 B VDD VDD mp15  l=0.13u w=0.57u m=1
.ends an02d2
* SPICE INPUT		Tue Jul 31 18:32:34 2018	an02d2p5
* EV_NETLIST Version AMD.64 Release B-2008.09.SP5.HF4.26013 2015/05/03
*
*The following line needed for Star-CR:
*CRU_OPT (KEEP_ELEMENTS "^[CR]D")
*
*The following line needed for CDL:
*.BIPOLAR

* Hierarchy Level 0

* Top of hierarchy  cell=an02d2p5
.subckt an02d2p5 Y GND VDD A B
M1 N_8 A GND GND mn15  l=0.13u w=0.46u m=1
M2 GND N_5 Y GND mn15  l=0.13u w=0.46u m=1
M3 GND N_5 Y GND mn15  l=0.13u w=0.46u m=1
M4 N_7 A GND GND mn15  l=0.13u w=0.46u m=1
M5 N_8 B N_5 GND mn15  l=0.13u w=0.46u m=1
M6 N_5 B N_7 GND mn15  l=0.13u w=0.46u m=1
M7 N_5 A VDD VDD mp15  l=0.13u w=0.69u m=1
M8 VDD N_5 Y VDD mp15  l=0.13u w=0.69u m=1
M9 VDD N_5 Y VDD mp15  l=0.13u w=0.69u m=1
M10 N_5 A VDD VDD mp15  l=0.13u w=0.69u m=1
M11 N_5 B VDD VDD mp15  l=0.13u w=0.69u m=1
M12 N_5 B VDD VDD mp15  l=0.13u w=0.69u m=1
.ends an02d2p5
* SPICE INPUT		Tue Jul 31 18:32:46 2018	an02d3p5
* EV_NETLIST Version AMD.64 Release B-2008.09.SP5.HF4.26013 2015/05/03
*
*The following line needed for Star-CR:
*CRU_OPT (KEEP_ELEMENTS "^[CR]D")
*
*The following line needed for CDL:
*.BIPOLAR

* Hierarchy Level 0

* Top of hierarchy  cell=an02d3p5
.subckt an02d3p5 Y GND VDD A B
M1 N_10 B N_4 GND mn15  l=0.13u w=0.46u m=1
M2 N_11 A GND GND mn15  l=0.13u w=0.46u m=1
M3 N_10 A GND GND mn15  l=0.13u w=0.46u m=1
M4 N_12 B N_4 GND mn15  l=0.13u w=0.46u m=1
M5 N_4 B N_11 GND mn15  l=0.13u w=0.46u m=1
M6 N_12 A GND GND mn15  l=0.13u w=0.46u m=1
M7 GND N_4 Y GND mn15  l=0.13u w=0.46u m=1
M8 GND N_4 Y GND mn15  l=0.13u w=0.46u m=1
M9 GND N_4 Y GND mn15  l=0.13u w=0.46u m=1
M10 Y N_4 GND GND mn15  l=0.13u w=0.46u m=1
M11 N_4 B VDD VDD mp15  l=0.13u w=0.69u m=1
M12 N_4 A VDD VDD mp15  l=0.13u w=0.69u m=1
M13 VDD A N_4 VDD mp15  l=0.13u w=0.69u m=1
M14 N_4 B VDD VDD mp15  l=0.13u w=0.69u m=1
M15 VDD B N_4 VDD mp15  l=0.13u w=0.69u m=1
M16 VDD A N_4 VDD mp15  l=0.13u w=0.69u m=1
M17 VDD N_4 Y VDD mp15  l=0.13u w=0.69u m=1
M18 VDD N_4 Y VDD mp15  l=0.13u w=0.69u m=1
M19 VDD N_4 Y VDD mp15  l=0.13u w=0.69u m=1
M20 Y N_4 VDD VDD mp15  l=0.13u w=0.69u m=1
.ends an02d3p5
* SPICE INPUT		Tue Jul 31 18:32:58 2018	an02d4
* EV_NETLIST Version AMD.64 Release B-2008.09.SP5.HF4.26013 2015/05/03
*
*The following line needed for Star-CR:
*CRU_OPT (KEEP_ELEMENTS "^[CR]D")
*
*The following line needed for CDL:
*.BIPOLAR

* Hierarchy Level 0

* Top of hierarchy  cell=an02d4
.subckt an02d4 Y GND VDD A B
M1 N_9 A GND GND mn15  l=0.13u w=0.46u m=1
M2 N_10 B N_5 GND mn15  l=0.13u w=0.46u m=1
M3 N_5 B N_9 GND mn15  l=0.13u w=0.46u m=1
M4 GND A N_10 GND mn15  l=0.13u w=0.46u m=1
M5 GND N_5 Y GND mn15  l=0.13u w=0.46u m=1
M6 GND N_5 Y GND mn15  l=0.13u w=0.46u m=1
M7 GND N_5 Y GND mn15  l=0.13u w=0.46u m=1
M8 Y N_5 GND GND mn15  l=0.13u w=0.46u m=1
M9 VDD A N_5 VDD mp15  l=0.13u w=0.69u m=1
M10 N_5 B VDD VDD mp15  l=0.13u w=0.69u m=1
M11 VDD B N_5 VDD mp15  l=0.13u w=0.345u m=1
M12 VDD A N_5 VDD mp15  l=0.13u w=0.345u m=1
M13 VDD N_5 Y VDD mp15  l=0.13u w=0.69u m=1
M14 VDD N_5 Y VDD mp15  l=0.13u w=0.69u m=1
M15 VDD N_5 Y VDD mp15  l=0.13u w=0.69u m=1
M16 Y N_5 VDD VDD mp15  l=0.13u w=0.69u m=1
.ends an02d4
* SPICE INPUT		Tue Jul 31 18:33:10 2018	an02dm
* EV_NETLIST Version AMD.64 Release B-2008.09.SP5.HF4.26013 2015/05/03
*
*The following line needed for Star-CR:
*CRU_OPT (KEEP_ELEMENTS "^[CR]D")
*
*The following line needed for CDL:
*.BIPOLAR

* Hierarchy Level 0

* Top of hierarchy  cell=an02dm
.subckt an02dm GND Y VDD A B
M1 N_5 B N_4 GND mn15  l=0.13u w=0.26u m=1
M2 Y N_4 GND GND mn15  l=0.13u w=0.36u m=1
M3 N_5 A GND GND mn15  l=0.13u w=0.26u m=1
M4 N_4 B VDD VDD mp15  l=0.13u w=0.325u m=1
M5 Y N_4 VDD VDD mp15  l=0.13u w=0.55u m=1
M6 N_4 A VDD VDD mp15  l=0.13u w=0.325u m=1
.ends an02dm
* SPICE INPUT		Tue Jul 31 18:33:22 2018	an03d0
* EV_NETLIST Version AMD.64 Release B-2008.09.SP5.HF4.26013 2015/05/03
*
*The following line needed for Star-CR:
*CRU_OPT (KEEP_ELEMENTS "^[CR]D")
*
*The following line needed for CDL:
*.BIPOLAR

* Hierarchy Level 0

* Top of hierarchy  cell=an03d0
.subckt an03d0 GND Y VDD A B C
M1 Y N_4 GND GND mn15  l=0.13u w=0.26u m=1
M2 N_6 A GND GND mn15  l=0.13u w=0.26u m=1
M3 N_6 B N_5 GND mn15  l=0.13u w=0.26u m=1
M4 N_5 C N_4 GND mn15  l=0.13u w=0.26u m=1
M5 Y N_4 VDD VDD mp15  l=0.13u w=0.4u m=1
M6 N_4 A VDD VDD mp15  l=0.13u w=0.29u m=1
M7 N_4 B VDD VDD mp15  l=0.13u w=0.29u m=1
M8 N_4 C VDD VDD mp15  l=0.13u w=0.29u m=1
.ends an03d0
* SPICE INPUT		Tue Jul 31 18:33:35 2018	an03d1
* EV_NETLIST Version AMD.64 Release B-2008.09.SP5.HF4.26013 2015/05/03
*
*The following line needed for Star-CR:
*CRU_OPT (KEEP_ELEMENTS "^[CR]D")
*
*The following line needed for CDL:
*.BIPOLAR

* Hierarchy Level 0

* Top of hierarchy  cell=an03d1
.subckt an03d1 GND Y VDD A B C
M1 N_6 A GND GND mn15  l=0.13u w=0.26u m=1
M2 N_6 B N_5 GND mn15  l=0.13u w=0.26u m=1
M3 N_5 C N_4 GND mn15  l=0.13u w=0.26u m=1
M4 Y N_4 GND GND mn15  l=0.13u w=0.46u m=1
M5 N_4 A VDD VDD mp15  l=0.13u w=0.29u m=1
M6 N_4 B VDD VDD mp15  l=0.13u w=0.29u m=1
M7 N_4 C VDD VDD mp15  l=0.13u w=0.29u m=1
M8 Y N_4 VDD VDD mp15  l=0.13u w=0.69u m=1
.ends an03d1
* SPICE INPUT		Tue Jul 31 18:33:47 2018	an03d2
* EV_NETLIST Version AMD.64 Release B-2008.09.SP5.HF4.26013 2015/05/03
*
*The following line needed for Star-CR:
*CRU_OPT (KEEP_ELEMENTS "^[CR]D")
*
*The following line needed for CDL:
*.BIPOLAR

* Hierarchy Level 0

* Top of hierarchy  cell=an03d2
.subckt an03d2 Y GND VDD A B C
M1 N_6 C N_4 GND mn15  l=0.13u w=0.46u m=1
M2 N_7 B N_6 GND mn15  l=0.13u w=0.46u m=1
M3 N_7 A GND GND mn15  l=0.13u w=0.46u m=1
M4 GND N_4 Y GND mn15  l=0.13u w=0.46u m=1
M5 GND N_4 Y GND mn15  l=0.13u w=0.46u m=1
M6 VDD C N_4 VDD mp15  l=0.13u w=0.51u m=1
M7 N_4 B VDD VDD mp15  l=0.13u w=0.51u m=1
M8 VDD A N_4 VDD mp15  l=0.13u w=0.51u m=1
M9 VDD N_4 Y VDD mp15  l=0.13u w=0.69u m=1
M10 VDD N_4 Y VDD mp15  l=0.13u w=0.69u m=1
.ends an03d2
* SPICE INPUT		Tue Jul 31 18:34:01 2018	an03d4
* EV_NETLIST Version AMD.64 Release B-2008.09.SP5.HF4.26013 2015/05/03
*
*The following line needed for Star-CR:
*CRU_OPT (KEEP_ELEMENTS "^[CR]D")
*