* SPICE INPUT		Tue Sep 18 13:23:08 2018	drfcrb0
* EV_NETLIST Version AMD.64 Release B-2008.09.SP5.HF4.26013 2015/05/03
*
*The following line needed for Star-CR:
*CRU_OPT (KEEP_ELEMENTS "^[CR]D")
*
*The following line needed for CDL:
*.BIPOLAR

* Hierarchy Level 0

* Top of hierarchy  cell=drfcrb0
.subckt drfcrb0 VDD VDDG GND Q QN RN D RETN CK
M1 GND N_9 N_5 GND mn15  l=0.13u w=0.2u m=1
M2 N_41 N_9 N_11 GND mn15  l=0.13u w=0.32u m=1
M3 N_41 D GND GND mn15  l=0.13u w=0.32u m=1
M4 GND CK N_9 GND mn15  l=0.13u w=0.22u m=1
M5 N_11 N_5 N_36 GND mn15  l=0.13u w=0.26u m=1
M6 GND N_16 N_36 GND mn15  l=0.13u w=0.26u m=1
M7 N_16 N_11 GND GND mn15  l=0.13u w=0.26u m=1
M8 N_16 N_5 N_14 GND mn15  l=0.13u w=0.26u m=1
M9 N_14 N_19 GND GND mn15  l=0.13u w=0.26u m=1
M10 N_18 N_14 GND GND mn15  l=0.13u w=0.26u m=1
M11 N_19 RN GND GND mn15  l=0.13u w=0.26u m=1
M12 N_50 N_24 GND GND mn15  l=0.13u w=0.26u m=1
M13 N_14 N_9 N_50 GND mn15  l=0.13u w=0.26u m=1
M14 N_24 RETN N_18 GND mn15  l=0.13u w=0.26u m=1
M15 Q N_18 GND GND mn15  l=0.13u w=0.26u m=1
M16 QN N_14 GND GND mn15  l=0.13u w=0.26u m=1
M17 N_30 RETN GND GND mn15  l=0.13u w=0.26u m=1
M18 N_29 N_24 GND GND mn15  l=0.13u w=0.26u m=1
M19 GND N_29 N_60 GND mn15  l=0.13u w=0.26u m=1
M20 N_24 N_30 N_60 GND mn15  l=0.13u w=0.26u m=1
M21 VDD N_9 N_5 VDD mp15  l=0.13u w=0.51u m=1
M22 N_73 D VDD VDD mp15  l=0.13u w=0.4u m=1
M23 N_11 N_9 N_72 VDD mp15  l=0.13u w=0.26u m=1
M24 N_9 CK VDD VDD mp15  l=0.13u w=0.56u m=1
M25 N_73 N_5 N_11 VDD mp15  l=0.13u w=0.4u m=1
M26 VDD N_16 N_72 VDD mp15  l=0.13u w=0.26u m=1
M27 N_18 N_14 VDD VDD mp15  l=0.13u w=0.4u m=1
M28 N_19 RN VDD VDD mp15  l=0.13u w=0.4u m=1
M29 N_16 N_11 N_70 VDD mp15  l=0.13u w=0.4u m=1
M30 N_74 N_24 N_70 VDD mp15  l=0.13u w=0.26u m=1
M31 N_16 N_9 N_14 VDD mp15  l=0.13u w=0.4u m=1
M32 N_70 N_19 VDD VDD mp15  l=0.13u w=0.4u m=1
M33 VDD N_19 N_70 VDD mp15  l=0.13u w=0.4u m=1
M34 N_74 N_5 N_14 VDD mp15  l=0.13u w=0.26u m=1
M35 Q N_18 VDD VDD mp15  l=0.13u w=0.4u m=1
M36 QN N_14 VDD VDD mp15  l=0.13u w=0.4u m=1
M37 VDDG N_29 N_75 VDDG mp15  l=0.13u w=0.26u m=1
M38 N_24 RETN N_75 VDDG mp15  l=0.13u w=0.26u m=1
M39 N_24 N_30 N_18 VDDG mp15  l=0.13u w=0.26u m=1
M40 N_30 RETN VDDG VDDG mp15  l=0.13u w=0.26u m=1
M41 N_29 N_24 VDDG VDDG mp15  l=0.13u w=0.26u m=1
.ends drfcrb0
* SPICE INPUT		Tue Sep 18 13:23:14 2018	drfcrb1
* EV_NETLIST Version AMD.64 Release B-2008.09.SP5.HF4.26013 2015/05/03
*
*The following line needed for Star-CR:
*CRU_OPT (KEEP_ELEMENTS "^[CR]D")
*
*The following line needed for CDL:
*.BIPOLAR

* Hierarchy Level 0

* Top of hierarchy  cell=drfcrb1
.subckt drfcrb1 VDD VDDG GND Q QN RETN RN D CK
M1 GND N_9 N_5 GND mn15  l=0.13u w=0.2u m=1
M2 GND CK N_9 GND mn15  l=0.13u w=0.22u m=1
M3 N_41 D GND GND mn15  l=0.13u w=0.44u m=1
M4 N_41 N_9 N_11 GND mn15  l=0.13u w=0.44u m=1
M5 N_11 N_5 N_36 GND mn15  l=0.13u w=0.26u m=1
M6 GND N_15 N_36 GND mn15  l=0.13u w=0.26u m=1
M7 N_15 N_11 GND GND mn15  l=0.13u w=0.4u m=1
M8 GND N_19 N_13 GND mn15  l=0.13u w=0.4u m=1
M9 N_13 N_5 N_15 GND mn15  l=0.13u w=0.4u m=1
M10 N_19 RN GND GND mn15  l=0.13u w=0.3u m=1
M11 N_18 N_13 GND GND mn15  l=0.13u w=0.4u m=1
M12 N_13 N_9 N_50 GND mn15  l=0.13u w=0.26u m=1
M13 N_50 N_27 GND GND mn15  l=0.13u w=0.26u m=1
M14 Q N_18 GND GND mn15  l=0.13u w=0.46u m=1
M15 QN N_13 GND GND mn15  l=0.13u w=0.46u m=1
M16 N_27 RETN N_18 GND mn15  l=0.13u w=0.26u m=1
M17 N_30 RETN GND GND mn15  l=0.13u w=0.26u m=1
M18 N_29 N_27 GND GND mn15  l=0.13u w=0.26u m=1
M19 N_27 N_30 N_60 GND mn15  l=0.13u w=0.26u m=1
M20 GND N_29 N_60 GND mn15  l=0.13u w=0.26u m=1
M21 VDD N_9 N_5 VDD mp15  l=0.13u w=0.51u m=1
M22 VDD CK N_9 VDD mp15  l=0.13u w=0.56u m=1
M23 N_77 D VDD VDD mp15  l=0.13u w=0.6u m=1
M24 N_77 N_5 N_11 VDD mp15  l=0.13u w=0.6u m=1
M25 VDD N_15 N_76 VDD mp15  l=0.13u w=0.26u m=1
M26 N_11 N_9 N_76 VDD mp15  l=0.13u w=0.26u m=1
M27 N_19 RN VDD VDD mp15  l=0.13u w=0.5u m=1
M28 N_18 N_13 VDD VDD mp15  l=0.13u w=0.6u m=1
M29 N_15 N_9 N_13 VDD mp15  l=0.13u w=0.6u m=1
M30 N_66 N_11 N_15 VDD mp15  l=0.13u w=0.6u m=1
M31 N_66 N_19 VDD VDD mp15  l=0.13u w=0.6u m=1
M32 VDD N_19 N_66 VDD mp15  l=0.13u w=0.6u m=1
M33 N_78 N_5 N_13 VDD mp15  l=0.13u w=0.26u m=1
M34 N_78 N_27 N_66 VDD mp15  l=0.13u w=0.26u m=1
M35 Q N_18 VDD VDD mp15  l=0.13u w=0.69u m=1
M36 QN N_13 VDD VDD mp15  l=0.13u w=0.69u m=1
M37 N_30 RETN VDDG VDDG mp15  l=0.13u w=0.26u m=1
M38 N_29 N_27 VDDG VDDG mp15  l=0.13u w=0.26u m=1
M39 N_27 N_30 N_18 VDDG mp15  l=0.13u w=0.26u m=1
M40 N_27 RETN N_79 VDDG mp15  l=0.13u w=0.26u m=1
M41 VDDG N_29 N_79 VDDG mp15  l=0.13u w=0.26u m=1
.ends drfcrb1
* SPICE INPUT		Tue Sep 18 13:23:21 2018	drfcrb2
* EV_NETLIST Version AMD.64 Release B-2008.09.SP5.HF4.26013 2015/05/03
*
*The following line needed for Star-CR:
*CRU_OPT (KEEP_ELEMENTS "^[CR]D")
*
*The following line needed for CDL:
*.BIPOLAR

* Hierarchy Level 0

* Top of hierarchy  cell=drfcrb2
.subckt drfcrb2 VDD VDDG GND QN Q RETN RN D CK
M1 N_7 CK GND GND mn15  l=0.13u w=0.28u m=1
M2 GND N_7 N_5 GND mn15  l=0.13u w=0.22u m=1
M3 N_9 RN GND GND mn15  l=0.13u w=0.2u m=1
M4 GND RN N_9 GND mn15  l=0.13u w=0.2u m=1
M5 N_12 N_5 N_11 GND mn15  l=0.13u w=0.46u m=1
M6 N_48 N_5 N_14 GND mn15  l=0.13u w=0.26u m=1
M7 GND N_11 N_48 GND mn15  l=0.13u w=0.26u m=1
M8 GND N_14 N_11 GND mn15  l=0.13u w=0.46u m=1
M9 N_47 N_7 N_14 GND mn15  l=0.13u w=0.46u m=1
M10 N_47 D GND GND mn15  l=0.13u w=0.46u m=1
M11 QN N_12 GND GND mn15  l=0.13u w=0.46u m=1
M12 GND N_12 QN GND mn15  l=0.13u w=0.46u m=1
M13 GND N_9 N_12 GND mn15  l=0.13u w=0.46u m=1
M14 GND N_26 Q GND mn15  l=0.13u w=0.46u m=1
M15 GND N_26 Q GND mn15  l=0.13u w=0.46u m=1
M16 N_61 N_7 N_12 GND mn15  l=0.13u w=0.26u m=1
M17 GND N_27 N_61 GND mn15  l=0.13u w=0.26u m=1
M18 GND N_12 N_26 GND mn15  l=0.13u w=0.46u m=1
M19 N_27 RETN N_26 GND mn15  l=0.13u w=0.26u m=1
M20 N_33 RETN GND GND mn15  l=0.13u w=0.26u m=1
M21 N_32 N_27 GND GND mn15  l=0.13u w=0.26u m=1
M22 GND N_32 N_66 GND mn15  l=0.13u w=0.26u m=1
M23 N_27 N_33 N_66 GND mn15  l=0.13u w=0.26u m=1
M24 N_74 D VDD VDD mp15  l=0.13u w=0.69u m=1
M25 N_7 CK VDD VDD mp15  l=0.13u w=0.69u m=1
M26 VDD N_7 N_5 VDD mp15  l=0.13u w=0.56u m=1
M27 N_74 N_5 N_14 VDD mp15  l=0.13u w=0.69u m=1
M28 VDD N_11 N_77 VDD mp15  l=0.13u w=0.26u m=1
M29 N_14 N_7 N_77 VDD mp15  l=0.13u w=0.26u m=1
M30 N_9 RN VDD VDD mp15  l=0.13u w=0.3u m=1
M31 N_9 RN VDD VDD mp15  l=0.13u w=0.3u m=1
M32 N_11 N_14 N_70 VDD mp15  l=0.13u w=0.69u m=1
M33 N_11 N_7 N_12 VDD mp15  l=0.13u w=0.69u m=1
M34 VDD N_9 N_70 VDD mp15  l=0.13u w=0.69u m=1
M35 N_70 N_9 VDD VDD mp15  l=0.13u w=0.69u m=1
M36 N_12 N_5 N_78 VDD mp15  l=0.13u w=0.26u m=1
M37 N_70 N_27 N_78 VDD mp15  l=0.13u w=0.26u m=1
M38 QN N_12 VDD VDD mp15  l=0.13u w=0.69u m=1
M39 VDD N_12 QN VDD mp15  l=0.13u w=0.69u m=1
M40 Q N_26 VDD VDD mp15  l=0.13u w=0.69u m=1
M41 Q N_26 VDD VDD mp15  l=0.13u w=0.69u m=1
M42 N_26 N_12 VDD VDD mp15  l=0.13u w=0.69u m=1
M43 N_33 RETN VDDG VDDG mp15  l=0.13u w=0.26u m=1
M44 N_32 N_27 VDDG VDDG mp15  l=0.13u w=0.26u m=1
M45 N_27 RETN N_79 VDDG mp15  l=0.13u w=0.26u m=1
M46 VDDG N_32 N_79 VDDG mp15  l=0.13u w=0.26u m=1
M47 N_27 N_33 N_26 VDDG mp15  l=0.13u w=0.26u m=1
.ends drfcrb2
* SPICE INPUT		Tue Sep 18 13:23:27 2018	drfcrbm
* EV_NETLIST Version AMD.64 Release B-2008.09.SP5.HF4.26013 2015/05/03
*
*The following line needed for Star-CR:
*CRU_OPT (KEEP_ELEMENTS "^[CR]D")
*
*The following line needed for CDL:
*.BIPOLAR

* Hierarchy Level 0

* Top of hierarchy  cell=drfcrbm
.subckt drfcrbm VDD VDDG GND Q QN RETN RN D CK
M1 GND N_9 N_5 GND mn15  l=0.13u w=0.2u m=1
M2 GND CK N_9 GND mn15  l=0.13u w=0.22u m=1
M3 N_41 D GND GND mn15  l=0.13u w=0.32u m=1
M4 N_41 N_9 N_11 GND mn15  l=0.13u w=0.32u m=1
M5 N_11 N_5 N_36 GND mn15  l=0.13u w=0.26u m=1
M6 GND N_16 N_36 GND mn15  l=0.13u w=0.26u m=1
M7 N_16 N_11 GND GND mn15  l=0.13u w=0.26u m=1
M8 N_16 N_5 N_14 GND mn15  l=0.13u w=0.26u m=1
M9 N_14 N_19 GND GND mn15  l=0.13u w=0.26u m=1
M10 N_19 RN GND GND mn15  l=0.13u w=0.26u m=1
M11 N_18 N_14 GND GND mn15  l=0.13u w=0.26u m=1
M12 N_14 N_9 N_50 GND mn15  l=0.13u w=0.26u m=1
M13 N_50 N_27 GND GND mn15  l=0.13u w=0.26u m=1
M14 Q N_18 GND GND mn15  l=0.13u w=0.36u m=1
M15 QN N_14 GND GND mn15  l=0.13u w=0.36u m=1
M16 N_27 RETN N_18 GND mn15  l=0.13u w=0.26u m=1
M17 N_30 RETN GND GND mn15  l=0.13u w=0.26u m=1
M18 N_29 N_27 GND GND mn15  l=0.13u w=0.26u m=1
M19 N_27 N_30 N_60 GND mn15  l=0.13u w=0.26u m=1
M20 GND N_29 N_60 GND mn15  l=0.13u w=0.26u m=1
M21 VDD N_9 N_5 VDD mp15  l=0.13u w=0.51u m=1
M22 N_9 CK VDD VDD mp15  l=0.13u w=0.56u m=1
M23 N_73 D VDD VDD mp15  l=0.13u w=0.4u m=1
M24 N_73 N_5 N_11 VDD mp15  l=0.13u w=0.4u m=1
M25 VDD N_16 N_72 VDD mp15  l=0.13u w=0.26u m=1
M26 N_11 N_9 N_72 VDD mp15  l=0.13u w=0.26u m=1
M27 N_19 RN VDD VDD mp15  l=0.13u w=0.4u m=1
M28 N_18 N_14 VDD VDD mp15  l=0.13u w=0.4u m=1
M29 N_16 N_9 N_14 VDD mp15  l=0.13u w=0.4u m=1
M30 N_16 N_11 N_66 VDD mp15  l=0.13u w=0.4u m=1
M31 N_74 N_5 N_14 VDD mp15  l=0.13u w=0.26u m=1
M32 N_74 N_27 N_66 VDD mp15  l=0.13u w=0.26u m=1
M33 N_66 N_19 VDD VDD mp15  l=0.13u w=0.4u m=1
M34 VDD N_19 N_66 VDD mp15  l=0.13u w=0.4u m=1
M35 Q N_18 VDD VDD mp15  l=0.13u w=0.55u m=1
M36 QN N_14 VDD VDD mp15  l=0.13u w=0.55u m=1
M37 N_30 RETN VDDG VDDG mp15  l=0.13u w=0.26u m=1
M38 N_29 N_27 VDDG VDDG mp15  l=0.13u w=0.26u m=1
M39 N_27 N_30 N_18 VDDG mp15  l=0.13u w=0.26u m=1
M40 N_27 RETN N_75 VDDG mp15  l=0.13u w=0.26u m=1
M41 VDDG N_29 N_75 VDDG mp15  l=0.13u w=0.26u m=1
.ends drfcrbm
* SPICE INPUT		Tue Sep 18 13:23:33 2018	drfnrb0
* EV_NETLIST Version AMD.64 Release B-2008.09.SP5.HF4.26013 2015/05/03
*
*The following line needed for Star-CR:
*CRU_OPT (KEEP_ELEMENTS "^[CR]D")
*
*The following line needed for CDL:
*.BIPOLAR

* Hierarchy Level 0

* Top of hierarchy  cell=drfnrb0
.subckt drfnrb0 VDD VDDG GND QN Q RETN CK D
M1 N_34 N_18 N_7 GND mn15  l=0.13u w=0.26u m=1
M2 N_34 N_5 GND GND mn15  l=0.13u w=0.26u m=1
M3 GND N_7 N_5 GND mn15  l=0.13u w=0.26u m=1
M4 N_38 N_9 N_7 GND mn15  l=0.13u w=0.28u m=1
M5 N_38 D GND GND mn15  l=0.13u w=0.28u m=1
M6 GND CK N_9 GND mn15  l=0.13u w=0.22u m=1
M7 QN N_14 GND GND mn15  l=0.13u w=0.26u m=1
M8 N_14 N_17 GND GND mn15  l=0.13u w=0.26u m=1
M9 GND N_9 N_18 GND mn15  l=0.13u w=0.2u m=1
M10 GND N_5 N_42 GND mn15  l=0.13u w=0.39u m=1
M11 N_17 N_18 N_42 GND mn15  l=0.13u w=0.39u m=1
M12 Q N_17 GND GND mn15  l=0.13u w=0.26u m=1
M13 N_51 N_9 N_17 GND mn15  l=0.13u w=0.26u m=1
M14 N_51 N_26 GND GND mn15  l=0.13u w=0.26u m=1
M15 N_23 RETN GND GND mn15  l=0.13u w=0.26u m=1
M16 GND N_26 N_28 GND mn15  l=0.13u w=0.26u m=1
M17 N_56 N_28 GND GND mn15  l=0.13u w=0.26u m=1
M18 N_14 RETN N_26 GND mn15  l=0.13u w=0.26u m=1
M19 N_56 N_23 N_26 GND mn15  l=0.13u w=0.26u m=1
M20 N_126 N_18 N_7 VDD mp15  l=0.13u w=0.42u m=1
M21 N_127 N_9 N_7 VDD mp15  l=0.13u w=0.26u m=1
M22 N_126 D VDD VDD mp15  l=0.13u w=0.42u m=1
M23 N_127 N_5 VDD VDD mp15  l=0.13u w=0.26u m=1
M24 N_9 CK VDD VDD mp15  l=0.13u w=0.54u m=1
M25 N_5 N_7 VDD VDD mp15  l=0.13u w=0.4u m=1
M26 QN N_14 VDD VDD mp15  l=0.13u w=0.4u m=1
M27 N_14 N_17 VDD VDD mp15  l=0.13u w=0.4u m=1
M28 VDD N_9 N_18 VDD mp15  l=0.13u w=0.49u m=1
M29 VDD N_5 N_128 VDD mp15  l=0.13u w=0.58u m=1
M30 N_128 N_9 N_17 VDD mp15  l=0.13u w=0.58u m=1
M31 Q N_17 VDD VDD mp15  l=0.13u w=0.4u m=1
M32 N_17 N_18 N_129 VDDG mp15  l=0.13u w=0.26u m=1
M33 VDD N_26 N_129 VDDG mp15  l=0.13u w=0.26u m=1
M34 VDDG N_26 N_28 VDDG mp15  l=0.13u w=0.26u m=1
M35 N_130 N_28 VDDG VDDG mp15  l=0.13u w=0.26u m=1
M36 N_130 RETN N_26 VDDG mp15  l=0.13u w=0.26u m=1
M37 N_14 N_23 N_26 VDDG mp15  l=0.13u w=0.26u m=1
M38 N_23 RETN VDDG VDDG mp15  l=0.13u w=0.26u m=1
.ends drfnrb0
* SPICE INPUT		Tue Sep 18 13:23:39 2018	drfnrb1
* EV_NETLIST Version AMD.64 Release B-2008.09.SP5.HF4.26013 2015/05/03
*
*The following line needed for Star-CR:
*CRU_OPT (KEEP_ELEMENTS "^[CR]D")
*
*The following line needed for CDL:
*.BIPOLAR

* Hierarchy Level 0

* Top of hierarchy  cell=drfnrb1
.subckt drfnrb1 VDDG VDD GND QN Q RETN CK D
M1 N_34 N_5 N_7 GND mn15  l=0.13u w=0.4u m=1
M2 N_34 D GND GND mn15  l=0.13u w=0.4u m=1
M3 GND CK N_5 GND mn15  l=0.13u w=0.22u m=1
M4 N_38 N_18 N_7 GND mn15  l=0.13u w=0.26u m=1
M5 N_38 N_9 GND GND mn15  l=0.13u w=0.26u m=1
M6 GND N_7 N_9 GND mn15  l=0.13u w=0.4u m=1
M7 QN N_14 GND GND mn15  l=0.13u w=0.46u m=1
M8 N_14 N_17 GND GND mn15  l=0.13u w=0.4u m=1
M9 GND N_5 N_18 GND mn15  l=0.13u w=0.2u m=1
M10 GND N_9 N_42 GND mn15  l=0.13u w=0.46u m=1
M11 N_17 N_18 N_42 GND mn15  l=0.13u w=0.46u m=1
M12 Q N_17 GND GND mn15  l=0.13u w=0.46u m=1
M13 N_51 N_5 N_17 GND mn15  l=0.13u w=0.26u m=1
M14 N_51 N_26 GND GND mn15  l=0.13u w=0.26u m=1
M15 N_23 RETN GND GND mn15  l=0.13u w=0.26u m=1
M16 N_56 N_23 N_26 GND mn15  l=0.13u w=0.26u m=1
M17 GND N_26 N_28 GND mn15  l=0.13u w=0.26u m=1
M18 N_56 N_28 GND GND mn15  l=0.13u w=0.26u m=1
M19 N_14 RETN N_26 GND mn15  l=0.13u w=0.26u m=1
M20 N_64 N_18 N_7 VDD mp15  l=0.13u w=0.6u m=1
M21 N_65 N_5 N_7 VDD mp15  l=0.13u w=0.26u m=1
M22 N_64 D VDD VDD mp15  l=0.13u w=0.6u m=1
M23 N_65 N_9 VDD VDD mp15  l=0.13u w=0.26u m=1
M24 N_5 CK VDD VDD mp15  l=0.13u w=0.56u m=1
M25 VDD N_7 N_9 VDD mp15  l=0.13u w=0.6u m=1
M26 N_18 N_5 VDD VDD mp15  l=0.13u w=0.51u m=1
M27 VDD N_14 QN VDD mp15  l=0.13u w=0.69u m=1
M28 VDD N_9 N_66 VDD mp15  l=0.13u w=0.69u m=1
M29 N_66 N_5 N_17 VDD mp15  l=0.13u w=0.69u m=1
M30 VDD N_17 N_14 VDD mp15  l=0.13u w=0.6u m=1
M31 VDD N_17 Q VDD mp15  l=0.13u w=0.69u m=1
M32 N_17 N_18 N_67 VDDG mp15  l=0.13u w=0.26u m=1
M33 VDD N_26 N_67 VDDG mp15  l=0.13u w=0.26u m=1
M34 N_14 N_23 N_26 VDDG mp15  l=0.13u w=0.26u m=1
M35 VDDG N_26 N_28 VDDG mp15  l=0.13u w=0.26u m=1
M36 N_68 N_28 VDDG VDDG mp15  l=0.13u w=0.26u m=1
M37 N_68 RETN N_26 VDDG mp15  l=0.13u w=0.26u m=1
M38 N_23 RETN VDDG VDDG mp15  l=0.13u w=0.26u m=1
.ends drfnrb1
* SPICE INPUT		Tue Sep 18 13:23:46 2018	drfnrb2
* EV_NETLIST Version AMD.64 Release B-2008.09.SP5.HF4.26013 2015/05/03
*
*The following line needed for Star-CR:
*CRU_OPT (KEEP_ELEMENTS "^[CR]D")
*
*The following line needed for CDL:
*.BIPOLAR

* Hierarchy Level 0

* Top of hierarchy  cell=drfnrb2
.subckt drfnrb2 VDDG VDD GND QN Q RETN CK D
M1 N_36 N_24 N_7 GND mn15  l=0.13u w=0.26u m=1
M2 N_36 N_5 GND GND mn15  l=0.13u w=0.26u m=1
M3 GND N_7 N_5 GND mn15  l=0.13u w=0.4u m=1
M4 N_40 N_10 N_7 GND mn15  l=0.13u w=0.46u m=1
M5 N_40 D GND GND mn15  l=0.13u w=0.46u m=1
M6 N_10 CK GND GND mn15  l=0.13u w=0.28u m=1
M7 QN N_14 GND GND mn15  l=0.13u w=0.46u m=1
M8 QN N_14 GND GND mn15  l=0.13u w=0.46u m=1
M9 N_14 N_23 GND GND mn15  l=0.13u w=0.46u m=1
M10 GND N_17 N_19 GND mn15  l=0.13u w=0.26u m=1
M11 N_49 N_19 GND GND mn15  l=0.13u w=0.26u m=1
M12 N_14 RETN N_17 GND mn15  l=0.13u w=0.26u m=1
M13 N_49 N_30 N_17 GND mn15  l=0.13u w=0.26u m=1
M14 GND N_10 N_24 GND mn15  l=0.13u w=0.22u m=1
M15 GND N_5 N_50 GND mn15  l=0.13u w=0.46u m=1
M16 N_23 N_24 N_50 GND mn15  l=0.13u w=0.46u m=1
M17 GND N_23 Q GND mn15  l=0.13u w=0.46u m=1
M18 GND N_23 Q GND mn15  l=0.13u w=0.46u m=1
M19 N_60 N_10 N_23 GND mn15  l=0.13u w=0.26u m=1
M20 N_60 N_17 GND GND mn15  l=0.13u w=0.26u m=1
M21 N_30 RETN GND GND mn15  l=0.13u w=0.26u m=1
M22 N_136 N_24 N_7 VDD mp15  l=0.13u w=0.69u m=1
M23 N_137 N_10 N_7 VDD mp15  l=0.13u w=0.26u m=1
M24 N_136 D VDD VDD mp15  l=0.13u w=0.69u m=1
M25 N_137 N_5 VDD VDD mp15  l=0.13u w=0.26u m=1
M26 VDD CK N_10 VDD mp15  l=0.13u w=0.69u m=1
M27 N_5 N_7 VDD VDD mp15  l=0.13u w=0.6u m=1
M28 QN N_14 VDD VDD mp15  l=0.13u w=0.69u m=1
M29 QN N_14 VDD VDD mp15  l=0.13u w=0.69u m=1
M30 VDD N_23 N_14 VDD mp15  l=0.13u w=0.69u m=1
M31 VDD N_10 N_24 VDD mp15  l=0.13u w=0.56u m=1
M32 VDD N_5 N_138 VDD mp15  l=0.13u w=0.69u m=1
M33 N_23 N_10 N_138 VDD mp15  l=0.13u w=0.69u m=1
M34 Q N_23 VDD VDD mp15  l=0.13u w=0.69u m=1
M35 VDD N_23 Q VDD mp15  l=0.13u w=0.69u m=1
M36 N_23 N_24 N_139 VDDG mp15  l=0.13u w=0.26u m=1
M37 VDD N_17 N_139 VDDG mp15  l=0.13u w=0.26u m=1
M38 VDDG N_17 N_19 VDDG mp15  l=0.13u w=0.26u m=1
M39 N_140 N_19 VDDG VDDG mp15  l=0.13u w=0.26u m=1
M40 N_140 RETN N_17 VDDG mp15  l=0.13u w=0.26u m=1
M41 N_14 N_30 N_17 VDDG mp15  l=0.13u w=0.26u m=1
M42 N_30 RETN VDDG VDDG mp15  l=0.13u w=0.26u m=1
.ends drfnrb2
* SPICE INPUT		Tue Sep 18 13:23:53 2018	drfnrbm
* EV_NETLIST Version AMD.64 Release B-2008.09.SP5.HF4.26013 2015/05/03
*
*The following line needed for Star-CR:
*CRU_OPT (KEEP_ELEMENTS "^[CR]D")
*
*The following line needed for CDL:
*.BIPOLAR

* Hierarchy Level 0

* Top of hierarchy  cell=drfnrbm
.subckt drfnrbm VDD VDDG GND QN Q RETN CK D
M1 N_34 N_18 N_7 GND mn15  l=0.13u w=0.26u m=1
M2 N_34 N_5 GND GND mn15  l=0.13u w=0.26u m=1
M3 GND N_7 N_5 GND mn15  l=0.13u w=0.26u m=1
M4 N_38 N_9 N_7 GND mn15  l=0.13u w=0.28u m=1
M5 N_38 D GND GND mn15  l=0.13u w=0.28u m=1
M6 GND CK N_9 GND mn15  l=0.13u w=0.22u m=1
M7 QN N_14 GND GND mn15  l=0.13u w=0.36u m=1
M8 N_14 N_17 GND GND mn15  l=0.13u w=0.26u m=1
M9 GND N_9 N_18 GND mn15  l=0.13u w=0.2u m=1
M10 GND N_5 N_42 GND mn15  l=0.13u w=0.4u m=1
M11 N_17 N_18 N_42 GND mn15  l=0.13u w=0.4u m=1
M12 Q N_17 GND GND mn15  l=0.13u w=0.36u m=1
M13 N_51 N_9 N_17 GND mn15  l=0.13u w=0.26u m=1
M14 N_51 N_26 GND GND mn15  l=0.13u w=0.26u m=1
M15 N_23 RETN GND GND mn15  l=0.13u w=0.26u m=1
M16 GND N_26 N_28 GND mn15  l=0.13u w=0.26u m=1
M17 N_56 N_28 GND GND mn15  l=0.13u w=0.26u m=1
M18 N_14 RETN N_26 GND mn15  l=0.13u w=0.26u m=1
M19 N_56 N_23 N_26 GND mn15  l=0.13u w=0.26u m=1
M20 N_126 N_18 N_7 VDD mp15  l=0.13u w=0.42u m=1
M21 N_127 N_9 N_7 VDD mp15  l=0.13u w=0.26u m=1
M22 N_126 D VDD VDD mp15  l=0.13u w=0.42u m=1
M23 N_127 N_5 VDD VDD mp15  l=0.13u w=0.26u m=1
M24 N_9 CK VDD VDD mp15  l=0.13u w=0.56u m=1
M25 N_5 N_7 VDD VDD mp15  l=0.13u w=0.4u m=1
M26 QN N_14 VDD VDD mp15  l=0.13u w=0.55u m=1
M27 N_14 N_17 VDD VDD mp15  l=0.13u w=0.4u m=1
M28 VDD N_9 N_18 VDD mp15  l=0.13u w=0.51u m=1
M29 VDD N_5 N_128 VDD mp15  l=0.13u w=0.6u m=1
M30 N_128 N_9 N_17 VDD mp15  l=0.13u w=0.6u m=1
M31 Q N_17 VDD VDD mp15  l=0.13u w=0.55u m=1
M32 N_17 N_18 N_129 VDDG mp15  l=0.13u w=0.26u m=1
M33 VDD N_26 N_129 VDDG mp15  l=0.13u w=0.26u m=1
M34 VDDG N_26 N_28 VDDG mp15  l=0.13u w=0.26u m=1
M35 N_130 N_28 VDDG VDDG mp15  l=0.13u w=0.26u m=1
M36 N_130 RETN N_26 VDDG mp15  l=0.13u w=0.26u m=1
M37 N_14 N_23 N_26 VDDG mp15  l=0.13u w=0.26u m=1
M38 N_23 RETN VDDG VDDG mp15  l=0.13u w=0.26u m=1
.ends drfnrbm
* SPICE INPUT		Tue Sep 18 13:23:59 2018	drfprb0
* EV_NETLIST Version AMD.64 Release B-2008.09.SP5.HF4.26013 2015/05/03
*
*The following line needed for Star-CR:
*CRU_OPT (KEEP_ELEMENTS "^[CR]D")
*
*The following line needed for CDL:
*.BIPOLAR

* Hierarchy Level 0

* Top of hierarchy  cell=drfprb0
.subckt drfprb0 VDDG VDD GND Q QN RETN SN CK D
M1 N_7 CK GND GND mn15  l=0.13u w=0.21u m=1
M2 GND N_7 N_5 GND mn15  l=0.13u w=0.19u m=1
M3 N_40 D GND GND mn15  l=0.13u w=0.28u m=1
M4 N_12 N_7 N_40 GND mn15  l=0.13u w=0.28u m=1
M5 N_38 N_18 GND GND mn15  l=0.13u w=0.26u m=1
M6 N_12 N_5 N_38 GND mn15  l=0.13u w=0.26u m=1
M7 N_14 N_17 GND GND mn15  l=0.13u w=0.26u m=1
M8 N_16 N_12 N_18 GND mn15  l=0.13u w=0.3u m=1
M9 N_16 SN GND GND mn15  l=0.13u w=0.3u m=1
M10 N_16 SN GND GND mn15  l=0.13u w=0.3u m=1
M11 N_18 N_5 N_17 GND mn15  l=0.13u w=0.26u m=1
M12 Q N_14 GND GND mn15  l=0.13u w=0.26u m=1
M13 QN N_17 GND GND mn15  l=0.13u w=0.26u m=1
M14 N_17 N_7 N_52 GND mn15  l=0.13u w=0.26u m=1
M15 N_16 N_27 N_52 GND mn15  l=0.13u w=0.26u m=1
M16 N_27 RETN N_14 GND mn15  l=0.13u w=0.26u m=1
M17 N_30 RETN GND GND mn15  l=0.13u w=0.26u m=1
M18 N_29 N_27 GND GND mn15  l=0.13u w=0.26u m=1
M19 N_27 N_30 N_60 GND mn15  l=0.13u w=0.26u m=1
M20 GND N_29 N_60 GND mn15  l=0.13u w=0.26u m=1
M21 N_7 CK VDD VDD mp15  l=0.13u w=0.54u m=1
M22 VDD N_7 N_5 VDD mp15  l=0.13u w=0.49u m=1
M23 N_73 D VDD VDD mp15  l=0.13u w=0.42u m=1
M24 N_74 N_18 VDD VDD mp15  l=0.13u w=0.26u m=1
M25 N_73 N_5 N_12 VDD mp15  l=0.13u w=0.42u m=1
M26 N_74 N_7 N_12 VDD mp15  l=0.13u w=0.26u m=1
M27 N_14 N_17 VDD VDD mp15  l=0.13u w=0.4u m=1
M28 N_17 N_7 N_18 VDD mp15  l=0.13u w=0.4u m=1
M29 VDD N_12 N_18 VDD mp15  l=0.13u w=0.4u m=1
M30 N_17 SN VDD VDD mp15  l=0.13u w=0.4u m=1
M31 N_75 N_5 N_17 VDD mp15  l=0.13u w=0.26u m=1
M32 N_75 N_27 VDD VDD mp15  l=0.13u w=0.26u m=1
M33 Q N_14 VDD VDD mp15  l=0.13u w=0.4u m=1
M34 QN N_17 VDD VDD mp15  l=0.13u w=0.4u m=1
M35 N_27 N_30 N_14 VDDG mp15  l=0.13u w=0.26u m=1
M36 N_27 RETN N_76 VDDG mp15  l=0.13u w=0.26u m=1
M37 VDDG N_29 N_76 VDDG mp15  l=0.13u w=0.26u m=1
M38 N_30 RETN VDDG VDDG mp15  l=0.13u w=0.26u m=1
M39 N_29 N_27 VDDG VDDG mp15  l=0.13u w=0.26u m=1
.ends drfprb0
* SPICE INPUT		Tue Sep 18 13:24:05 2018	drfprb1
* EV_NETLIST Version AMD.64 Release B-2008.09.SP5.HF4.26013 2015/05/03
*
*The following line needed for Star-CR:
*CRU_OPT (KEEP_ELEMENTS "^[CR]D")
*
*The following line needed for CDL:
*.BIPOLAR

* Hierarchy Level 0

* Top of hierarchy  cell=drfprb1
.subckt drfprb1 VDDG VDD GND Q QN RETN SN CK D
M1 N_7 CK GND GND mn15  l=0.13u w=0.22u m=1
M2 GND N_7 N_5 GND mn15  l=0.13u w=0.19u m=1
M3 N_41 D GND GND mn15  l=0.13u w=0.39u m=1
M4 N_41 N_7 N_11 GND mn15  l=0.13u w=0.39u m=1
M5 N_38 N_17 GND GND mn15  l=0.13u w=0.26u m=1
M6 N_11 N_5 N_38 GND mn15  l=0.13u w=0.26u m=1
M7 N_14 N_16 GND GND mn15  l=0.13u w=0.39u m=1
M8 N_15 N_11 N_17 GND mn15  l=0.13u w=0.4u m=1
M9 GND SN N_15 GND mn15  l=0.13u w=0.4u m=1
M10 N_15 SN GND GND mn15  l=0.13u w=0.4u m=1
M11 N_17 N_5 N_16 GND mn15  l=0.13u w=0.39u m=1
M12 QN N_16 GND GND mn15  l=0.13u w=0.46u m=1
M13 Q N_14 GND GND mn15  l=0.13u w=0.46u m=1
M14 N_16 N_7 N_52 GND mn15  l=0.13u w=0.26u m=1
M15 N_15 N_28 N_52 GND mn15  l=0.13u w=0.26u m=1
M16 N_28 N_33 N_55 GND mn15  l=0.13u w=0.26u m=1
M17 GND N_32 N_55 GND mn15  l=0.13u w=0.26u m=1
M18 N_28 RETN N_14 GND mn15  l=0.13u w=0.26u m=1
M19 N_33 RETN GND GND mn15  l=0.13u w=0.26u m=1
M20 N_32 N_28 GND GND mn15  l=0.13u w=0.26u m=1
M21 N_7 CK VDD VDD mp15  l=0.13u w=0.54u m=1
M22 VDD N_7 N_5 VDD mp15  l=0.13u w=0.49u m=1
M23 N_73 D VDD VDD mp15  l=0.13u w=0.58u m=1
M24 N_74 N_17 VDD VDD mp15  l=0.13u w=0.26u m=1
M25 N_73 N_5 N_11 VDD mp15  l=0.13u w=0.58u m=1
M26 N_74 N_7 N_11 VDD mp15  l=0.13u w=0.26u m=1
M27 N_17 N_7 N_16 VDD mp15  l=0.13u w=0.58u m=1
M28 N_17 N_11 VDD VDD mp15  l=0.13u w=0.58u m=1
M29 N_16 SN VDD VDD mp15  l=0.13u w=0.58u m=1
M30 N_14 N_16 VDD VDD mp15  l=0.13u w=0.58u m=1
M31 N_16 N_5 N_75 VDD mp15  l=0.13u w=0.26u m=1
M32 N_75 N_28 VDD VDD mp15  l=0.13u w=0.26u m=1
M33 QN N_16 VDD VDD mp15  l=0.13u w=0.69u m=1
M34 Q N_14 VDD VDD mp15  l=0.13u w=0.69u m=1
M35 N_33 RETN VDDG VDDG mp15  l=0.13u w=0.26u m=1
M36 N_32 N_28 VDDG VDDG mp15  l=0.13u w=0.26u m=1
M37 N_28 N_33 N_14 VDDG mp15  l=0.13u w=0.26u m=1
M38 N_28 RETN N_76 VDDG mp15  l=0.13u w=0.26u m=1
M39 VDDG N_32 N_76 VDDG mp15  l=0.13u w=0.26u m=1
.ends drfprb1
* SPICE INPUT		Tue Sep 18 13:24:11 2018	drfprb2
* EV_NETLIST Version AMD.64 Release B-2008.09.SP5.HF4.26013 2015/05/03
*
*The following line needed for Star-CR:
*CRU_OPT (KEEP_ELEMENTS "^[CR]D")
*
*The following line needed for CDL:
*.BIPOLAR

* Hierarchy Level 0

* Top of hierarchy  cell=drfprb2
.subckt drfprb2 VDDG VDD GND Q QN RETN SN CK D
M1 N_7 CK GND GND mn15  l=0.13u w=0.28u m=1
M2 GND N_7 N_5 GND mn15  l=0.13u w=0.22u m=1
M3 N_42 D GND GND mn15  l=0.13u w=0.46u m=1
M4 N_42 N_7 N_11 GND mn15  l=0.13u w=0.46u m=1
M5 GND N_16 N_38 GND mn15  l=0.13u w=0.26u m=1
M6 N_11 N_5 N_38 GND mn15  l=0.13u w=0.26u m=1
M7 N_14 N_11 N_16 GND mn15  l=0.13u w=0.46u m=1
M8 N_14 SN GND GND mn15  l=0.13u w=0.46u m=1
M9 N_14 SN GND GND mn15  l=0.13u w=0.46u m=1
M10 N_16 N_5 N_15 GND mn15  l=0.13u w=0.46u m=1
M11 GND N_15 QN GND mn15  l=0.13u w=0.46u m=1
M12 QN N_15 GND GND mn15  l=0.13u w=0.46u m=1
M13 GND N_15 N_20 GND mn15  l=0.13u w=0.46u m=1
M14 GND N_20 Q GND mn15  l=0.13u w=0.46u m=1
M15 GND N_20 Q GND mn15  l=0.13u w=0.46u m=1
M16 N_26 N_29 N_54 GND mn15  l=0.13u w=0.26u m=1
M17 GND N_28 N_54 GND mn15  l=0.13u w=0.26u m=1
M18 N_29 RETN GND GND mn15  l=0.13u w=0.26u m=1
M19 N_28 N_26 GND GND mn15  l=0.13u w=0.26u m=1
M20 N_26 RETN N_20 GND mn15  l=0.13u w=0.26u m=1
M21 N_15 N_7 N_62 GND mn15  l=0.13u w=0.26u m=1
M22 N_14 N_26 N_62 GND mn15  l=0.13u w=0.26u m=1
M23 N_7 CK VDD VDD mp15  l=0.13u w=0.69u m=1
M24 VDD N_7 N_5 VDD mp15  l=0.13u w=0.54u m=1
M25 N_71 D VDD VDD mp15  l=0.13u w=0.69u m=1
M26 N_72 N_16 VDD VDD mp15  l=0.13u w=0.26u m=1
M27 N_71 N_5 N_11 VDD mp15  l=0.13u w=0.69u m=1
M28 N_72 N_7 N_11 VDD mp15  l=0.13u w=0.26u m=1
M29 N_15 N_7 N_16 VDD mp15  l=0.13u w=0.69u m=1
M30 N_16 N_11 VDD VDD mp15  l=0.13u w=0.35u m=1
M31 N_16 N_11 VDD VDD mp15  l=0.13u w=0.34u m=1
M32 VDD N_15 QN VDD mp15  l=0.13u w=0.69u m=1
M33 QN N_15 VDD VDD mp15  l=0.13u w=0.69u m=1
M34 VDD N_15 N_20 VDD mp15  l=0.13u w=0.69u m=1
M35 VDD N_20 Q VDD mp15  l=0.13u w=0.69u m=1
M36 VDD N_20 Q VDD mp15  l=0.13u w=0.69u m=1
M37 N_15 SN VDD VDD mp15  l=0.13u w=0.34u m=1
M38 N_15 SN VDD VDD mp15  l=0.13u w=0.35u m=1
M39 N_15 N_5 N_73 VDD mp15  l=0.13u w=0.26u m=1
M40 N_73 N_26 VDD VDD mp15  l=0.13u w=0.26u m=1
M41 N_26 N_29 N_20 VDDG mp15  l=0.13u w=0.26u m=1
M42 N_26 RETN N_74 VDDG mp15  l=0.13u w=0.26u m=1
M43 VDDG N_28 N_74 VDDG mp15  l=0.13u w=0.26u m=1
M44 N_29 RETN VDDG VDDG mp15  l=0.13u w=0.26u m=1
M45 N_28 N_26 VDDG VDDG mp15  l=0.13u w=0.26u m=1
.ends drfprb2
* SPICE INPUT		Tue Sep 18 13:24:17 2018	drfprbm
* EV_NETLIST Version AMD.64 Release B-2008.09.SP5.HF4.26013 2015/05/03
*
*The following line needed for Star-CR:
*CRU_OPT (KEEP_ELEMENTS "^[CR]D")
*
*The following line needed for CDL:
*.BIPOLAR

* Hierarchy Level 0

* Top of hierarchy  cell=drfprbm
.subckt drfprbm VDDG VDD GND Q QN RETN SN CK D
M1 N_7 CK GND GND mn15  l=0.13u w=0.21u m=1
M2 GND N_7 N_5 GND mn15  l=0.13u w=0.2u m=1
M3 N_40 D GND GND mn15  l=0.13u w=0.28u m=1
M4 N_12 N_7 N_40 GND mn15  l=0.13u w=0.28u m=1
M5 N_38 N_18 GND GND mn15  l=0.13u w=0.26u m=1
M6 N_12 N_5 N_38 GND mn15  l=0.13u w=0.26u m=1
M7 N_14 N_17 GND GND mn15  l=0.13u w=0.26u m=1
M8 N_16 N_12 N_18 GND mn15  l=0.13u w=0.3u m=1
M9 N_16 SN GND GND mn15  l=0.13u w=0.3u m=1
M10 N_16 SN GND GND mn15  l=0.13u w=0.3u m=1
M11 N_18 N_5 N_17 GND mn15  l=0.13u w=0.26u m=1
M12 Q N_14 GND GND mn15  l=0.13u w=0.35u m=1
M13 QN N_17 GND GND mn15  l=0.13u w=0.35u m=1
M14 N_17 N_7 N_52 GND mn15  l=0.13u w=0.26u m=1
M15 N_16 N_27 N_52 GND mn15  l=0.13u w=0.26u m=1
M16 N_27 RETN N_14 GND mn15  l=0.13u w=0.26u m=1
M17 N_30 RETN GND GND mn15  l=0.13u w=0.26u m=1
M18 N_29 N_27 GND GND mn15  l=0.13u w=0.26u m=1
M19 N_27 N_30 N_60 GND mn15  l=0.13u w=0.26u m=1
M20 GND N_29 N_60 GND mn15  l=0.13u w=0.26u m=1
M21 N_7 CK VDD VDD mp15  l=0.13u w=0.54u m=1
M22 VDD N_7 N_5 VDD mp15  l=0.13u w=0.49u m=1
M23 N_73 D VDD VDD mp15  l=0.13u w=0.42u m=1
M24 N_74 N_18 VDD VDD mp15  l=0.13u w=0.26u m=1
M25 N_73 N_5 N_12 VDD mp15  l=0.13u w=0.42u m=1
M26 N_74 N_7 N_12 VDD mp15  l=0.13u w=0.26u m=1
M27 N_14 N_17 VDD VDD mp15  l=0.13u w=0.4u m=1
M28 N_17 N_7 N_18 VDD mp15  l=0.13u w=0.4u m=1
M29 VDD N_12 N_18 VDD mp15  l=0.13u w=0.4u m=1
M30 N_17 SN VDD VDD mp15  l=0.13u w=0.4u m=1
M31 N_75 N_5 N_17 VDD mp15  l=0.13u w=0.26u m=1
M32 N_75 N_27 VDD VDD mp15  l=0.13u w=0.26u m=1
M33 Q N_14 VDD VDD mp15  l=0.13u w=0.53u m=1
M34 QN N_17 VDD VDD mp15  l=0.13u w=0.53u m=1
M35 N_27 N_30 N_14 VDDG mp15  l=0.13u w=0.26u m=1
M36 N_27 RETN N_76 VDDG mp15  l=0.13u w=0.26u m=1
M37 VDDG N_29 N_76 VDDG mp15  l=0.13u w=0.26u m=1
M38 N_30 RETN VDDG VDDG mp15  l=0.13u w=0.26u m=1
M39 N_29 N_27 VDDG VDDG mp15  l=0.13u w=0.26u m=1
.ends drfprbm
* SPICE INPUT		Tue Sep 18 13:24:23 2018	gpgbuffd16
* EV_NETLIST Version AMD.64 Release B-2008.09.SP5.HF4.26013 2015/05/03
*
*The following line needed for Star-CR:
*CRU_OPT (KEEP_ELEMENTS "^[CR]D")
*
*The following line needed for CDL:
*.BIPOLAR

* Hierarchy Level 0

* Top of hierarchy  cell=gpgbuffd16
.subckt gpgbuffd16 Y VDDG GND VDD A
M1 GND A N_4 GND mn15  l=0.13u w=0.72u m=1
M2 N_4 A GND GND mn15  l=0.13u w=0.72u m=1
M3 GND A N_4 GND mn15  l=0.13u w=0.72u m=1
M4 N_4 A GND GND mn15  l=0.13u w=0.72u m=1
M5 Y N_4 GND GND mn15  l=0.13u w=0.84u m=1
M6 Y N_4 GND GND mn15  l=0.13u w=0.84u m=1
M7 GND N_4 Y GND mn15  l=0.13u w=0.84u m=1
M8 Y N_4 GND GND mn15  l=0.13u w=0.84u m=1
M9 GND N_4 Y GND mn15  l=0.13u w=0.84u m=1
M10 Y N_4 GND GND mn15  l=0.13u w=0.84u m=1
M11 GND N_4 Y GND mn15  l=0.13u w=0.84u m=1
M12 Y N_4 GND GND mn15  l=0.13u w=0.72u m=1
M13 Y N_4 GND GND mn15  l=0.13u w=0.76u m=1
M14 VDDG A N_4 VDDG mp15  l=0.13u w=1.51u m=1
M15 VDDG A N_4 VDDG mp15  l=0.13u w=1.51u m=1
M16 VDDG A N_4 VDDG mp15  l=0.13u w=1.47u m=1
M17 VDDG N_4 Y VDDG mp15  l=0.13u w=1.47u m=1
M18 VDDG N_4 Y VDDG mp15  l=0.13u w=1.47u m=1
M19 VDDG N_4 Y VDDG mp15  l=0.13u w=1.47u m=1
M20 VDDG N_4 Y VDDG mp15  l=0.13u w=1.47u m=1
M21 Y N_4 VDDG VDDG mp15  l=0.13u w=1.33u m=1
M22 VDDG N_4 Y VDDG mp15  l=0.13u w=1.33u m=1
M23 Y N_4 VDDG VDDG mp15  l=0.13u w=1.33u m=1
M24 VDDG N_4 Y VDDG mp15  l=0.13u w=1.33u m=1
.ends gpgbuffd16
* SPICE INPUT		Tue Sep 18 13:24:29 2018	gpgbuffd2
* EV_NETLIST Version AMD.64 Release B-2008.09.SP5.HF4.26013 2015/05/03
*
*The following line needed for Star-CR:
*CRU_OPT (KEEP_ELEMENTS "^[CR]D")
*
*The following line needed for CDL:
*.BIPOLAR

* Hierarchy Level 0

* Top of hierarchy  cell=gpgbuffd2
.subckt gpgbuffd2 VDDG Y GND VDD A
M1 GND A N_4 GND mn15  l=0.13u w=0.36u m=1
M2 GND N_4 Y GND mn15  l=0.13u w=0.46u m=1
M3 GND N_4 Y GND mn15  l=0.13u w=0.46u m=1
M4 N_4 A VDDG VDDG mp15  l=0.13u w=0.56u m=1
M5 Y N_4 VDDG VDDG mp15  l=0.13u w=1.4u m=1
.ends gpgbuffd2
* SPICE INPUT		Tue Sep 18 13:24:36 2018	gpgbuffd32
* EV_NETLIST Version AMD.64 Release B-2008.09.SP5.HF4.26013 2015/05/03
*
*The following line needed for Star-CR:
*CRU_OPT (KEEP_ELEMENTS "^[CR]D")
*
*The following line needed for CDL:
*.BIPOLAR

* Hierarchy Level 0

* Top of hierarchy  cell=gpgbuffd32
.subckt gpgbuffd32 Y VDDG GND VDD A
M1 GND A N_4 GND mn15  l=0.13u w=0.72u m=1
M2 N_4 A GND GND mn15  l=0.13u w=0.72u m=1
M3 GND A N_4 GND mn15  l=0.13u w=0.72u m=1
M4 N_4 A GND GND mn15  l=0.13u w=0.72u m=1
M5 GND A N_4 GND mn15  l=0.13u w=0.72u m=1
M6 N_4 A GND GND mn15  l=0.13u w=0.72u m=1
M7 GND A N_4 GND mn15  l=0.13u w=0.72u m=1
M8 N_4 A GND GND mn15  l=0.13u w=0.72u m=1